

=======================================================================
=======================================================================
                       SU2 - INITIAL SOLUTION



MPI - REPORT BINDINGS:
[minion14:16855] MCW rank 1 bound to socket 1[core 6[hwt 0-1]]: [../../../../../..][BB/../../../../..]
[minion14:16855] MCW rank 2 bound to socket 0[core 1[hwt 0-1]]: [../BB/../../../..][../../../../../..]
[minion14:16855] MCW rank 3 bound to socket 1[core 7[hwt 0-1]]: [../../../../../..][../BB/../../../..]
[minion14:16855] MCW rank 4 bound to socket 0[core 2[hwt 0-1]]: [../../BB/../../..][../../../../../..]
[minion14:16855] MCW rank 5 bound to socket 1[core 8[hwt 0-1]]: [../../../../../..][../../BB/../../..]
[minion14:16855] MCW rank 6 bound to socket 0[core 3[hwt 0-1]]: [../../../BB/../..][../../../../../..]
[minion14:16855] MCW rank 7 bound to socket 1[core 9[hwt 0-1]]: [../../../../../..][../../../BB/../..]
[minion14:16855] MCW rank 8 bound to socket 0[core 4[hwt 0-1]]: [../../../../BB/..][../../../../../..]
[minion14:16855] MCW rank 9 bound to socket 1[core 10[hwt 0-1]]: [../../../../../..][../../../../BB/..]
[minion14:16855] MCW rank 10 bound to socket 0[core 5[hwt 0-1]]: [../../../../../BB][../../../../../..]
[minion14:16855] MCW rank 11 bound to socket 1[core 11[hwt 0-1]]: [../../../../../..][../../../../../BB]
[minion14:16855] MCW rank 0 bound to socket 0[core 0[hwt 0-1]]: [BB/../../../../..][../../../../../..]

-------------------------------------------------------------------------
|    ___ _   _ ___                                                      |
|   / __| | | |_  )   Release 7.1.0 "Blackbird"                         |
|   \__ \ |_| |/ /                                                      |
|   |___/\___//___|   Suite (Computational Fluid Dynamics Code)         |
|                                                                       |
-------------------------------------------------------------------------
| SU2 Project Website: https://su2code.github.io                        |
|                                                                       |
| The SU2 Project is maintained by the SU2 Foundation                   |
| (http://su2foundation.org)                                            |
-------------------------------------------------------------------------
| Copyright 2012-2020, SU2 Contributors                                 |
|                                                                       |
| SU2 is free software; you can redistribute it and/or                  |
| modify it under the terms of the GNU Lesser General Public            |
| License as published by the Free Software Foundation; either          |
| version 2.1 of the License, or (at your option) any later version.    |
|                                                                       |
| SU2 is distributed in the hope that it will be useful,                |
| but WITHOUT ANY WARRANTY; without even the implied warranty of        |
| MERCHANTABILITY or FITNESS FOR A PARTICULAR PURPOSE. See the GNU      |
| Lesser General Public License for more details.                       |
|                                                                       |
| You should have received a copy of the GNU Lesser General Public      |
| License along with SU2. If not, see <http://www.gnu.org/licenses/>.   |
-------------------------------------------------------------------------

Parsing config file for zone 0

----------------- Physical Case Definition ( Zone 0 ) -------------------
Compressible Euler equations.
Mach number: 1e-09.
Angle of attack (AoA): 0 deg, and angle of sideslip (AoS): 0 deg.
No restart solution, use the values at infinity (freestream).
Non-Dimensional simulation (P=1.0, Rho=1.0, T=1.0 at the farfield).
The reference area is 1 m^2.
The semi-span will be computed using the max y(3D) value.
The reference length is 1 m.
Reference origin for moment evaluation is (0, 0, 0).
Surface(s) where the force coefficients are evaluated: 4.

Surface(s) plotted in the output file: 4.
Surface(s) to be analyzed in detail: 4.
Input mesh file name: admesh.INL.su2

--------------- Space Numerical Integration ( Zone 0 ) ------------------
Roe (with entropy fix = 1) solver for the flow inviscid terms.
Standard Roe without low-dissipation function.
First order integration in space.
Gradient for upwind reconstruction: unweighted Least-Squares.
Gradient for viscous and source terms: Green-Gauss.

--------------- Time Numerical Integration  ( Zone 0 ) ------------------
Local time stepping (steady state simulation).
Euler implicit method for the flow equations.
FGMRES is used for solving the linear system.
Using a ILU(0) preconditioning.
Convergence criteria of the linear solver: 1e-06.
Max number of linear iterations: 20.
CFL adaptation. Factor down: 0.5, factor up: 1.25,
                lower limit: 0.1, upper limit: 10,
                acceptable linear residual: 0.001.
Courant-Friedrichs-Lewy number:        1

------------------ Convergence Criteria  ( Zone 0 ) ---------------------
Maximum number of solver subiterations: 10000.
Begin convergence monitoring at iteration 10.
Residual minimum value: 1e-20.
Cauchy series min. value: 1e-10.
Number of Cauchy elements: 100.
Begin windowed time average at iteration 0.

-------------------- Output Information ( Zone 0 ) ----------------------
Writing solution files every 1000 iterations.
Writing the convergence history file every 1 inner iterations.
Writing the screen convergence history every 50 inner iterations.
The tabular file format is CSV (.csv).
Convergence history file name: history_2nd.
Forces breakdown file name: forces_breakdown.dat.
Surface file name: surface_flow.
Volume file name: flow.
Restart file name: solution.dat.

------------- Config File Boundary Information ( Zone 0 ) ---------------
+-----------------------------------------------------------------------+
|                        Marker Type|                        Marker Name|
+-----------------------------------------------------------------------+
|                         Euler wall|                                  2|
|                                   |                                  3|
+-----------------------------------------------------------------------+
|                          Far-field|                                  4|
+-----------------------------------------------------------------------+
|                     Symmetry plane|                                  6|
+-----------------------------------------------------------------------+
|                   Riemann boundary|                                  1|
|                                   |                                  5|
+-----------------------------------------------------------------------+

-------------------- Output Preprocessing ( Zone 0 ) --------------------
Screen output fields: INNER_ITER, RMS_DENSITY, NONPHYSICAL_POINTS, LINSOL_ITER, LINSOL_RESIDUAL, SURFACE_MACH, SURFACE_STATIC_PRESSURE
History output group(s): ITER, RMS_RES
Convergence field(s): RMS_DENSITY
Warning: No (valid) fields chosen for time convergence monitoring. Time convergence monitoring inactive.
Volume output fields: COORDINATES, SOLUTION, PRIMITIVE

------------------- Geometry Preprocessing ( Zone 0 ) -------------------
Two dimensional problem.
3347 grid points before partitioning.
6337 volume elements before partitioning.
6 surface markers.
12 boundary elements in index 0 (Marker = 1).
28 boundary elements in index 1 (Marker = 2).
53 boundary elements in index 2 (Marker = 3).
90 boundary elements in index 3 (Marker = 4).
17 boundary elements in index 4 (Marker = 5).
102 boundary elements in index 5 (Marker = 6).
Executing the partitioning functions.
Building the graph adjacency structure.
Calling ParMETIS... graph partitioning complete (487 edge cuts).
Distributing ParMETIS coloring.
Rebalancing vertices.
Rebalancing volume element connectivity.
Rebalancing markers and surface elements.
3856 vertices including ghost points. 
6822 interior elements including halo cells. 
6767 triangles.
55 quadrilaterals.
Establishing MPI communication patterns.
Setting point connectivity.
Renumbering points (Reverse Cuthill McKee Ordering).
Recomputing point connectivity.
Setting element connectivity.
Checking the numerical grid orientation.
All volume elements are correctly orientend.
There has been a re-orientation of 315 LINE surface elements.
Identifying edges and vertices.
Setting the control volume structure.
Area of the computational grid: 1173.79.
Searching for the closest normal neighbors to the surfaces.
Storing a mapping from global to local point index.
Compute the surface curvature.
Max K: 13.0183. Mean K: 0.18162. Standard deviation K: 1.14559.
Checking for periodicity.
Computing mesh quality statistics for the dual control volumes.
+--------------------------------------------------------------+
|           Mesh Quality Metric|        Minimum|        Maximum|
+--------------------------------------------------------------+
|    Orthogonality Angle (deg.)|        63.7505|             90|
|     CV Face Area Aspect Ratio|        1.00688|        9.57495|
|           CV Sub-Volume Ratio|              1|        7.26457|
+--------------------------------------------------------------+
Finding max control volume width.
Communicating number of neighbors.
Wetted area = 0 m^2.
Area projection in the x-plane = 0 m, y-plane = 0 m.
Max. coordinate in the x-direction = -1e+10 m, y-direction = -1e+10 m.
Min. coordinate in the x-direction = 1e+10 m, y-direction = 1e+10 m.
Checking if Euler & Symmetry markers are straight/plane:
Boundary marker 2 is NOT a single straight.
Boundary marker 3 is a single straight.
Boundary marker 6 is a single straight.
Computing wall distances.

-------------------- Solver Preprocessing ( Zone 0 ) --------------------
Inviscid flow: Computing density based on free-stream
temperature and pressure using the ideal gas law.
Force coefficients computed using free-stream values.

-- Models:
+------------------------------------------------------------------------------+
|          Viscosity Model|        Conductivity Model|              Fluid Model|
+------------------------------------------------------------------------------+
|                        -|                         -|                IDEAL_GAS|
+------------------------------------------------------------------------------+
-- Fluid properties:
+------------------------------------------------------------------------------+
|                  Name|    Dim. value|    Ref. value|      Unit|Non-dim. value|
+------------------------------------------------------------------------------+
|          Gas Constant|           297|           297|  N.m/kg.K|             1|
|      Spec. Heat Ratio|             -|             -|         -|           1.4|
+------------------------------------------------------------------------------+
-- Initial and free-stream conditions:
+------------------------------------------------------------------------------+
|                  Name|    Dim. value|    Ref. value|      Unit|Non-dim. value|
+------------------------------------------------------------------------------+
|       Static Pressure|        100430|        100430|        Pa|             1|
|               Density|       1.12716|       1.12716|    kg/m^3|             1|
|           Temperature|           300|           300|         K|             1|
|          Total Energy|        222750|         89100|   m^2/s^2|           2.5|
|            Velocity-X|   3.53186e-07|       298.496|       m/s|   1.18322e-09|
|            Velocity-Y|             0|       298.496|       m/s|             0|
|    Velocity Magnitude|   3.53186e-07|       298.496|       m/s|   1.18322e-09|
+------------------------------------------------------------------------------+
|           Mach Number|             -|             -|         -|         1e-09|
+------------------------------------------------------------------------------+
Initialize Jacobian structure (Euler). MG level: 0.

------------------- Numerics Preprocessing ( Zone 0 ) -------------------

----------------- Integration Preprocessing ( Zone 0 ) ------------------

------------------- Iteration Preprocessing ( Zone 0 ) ------------------
Euler/Navier-Stokes/RANS fluid iteration.

------------------------------ Begin Solver -----------------------------

Simulation Run using the Single-zone Driver
+------------------------------------------------------------------------------------------+
|  Inner_Iter|    rms[Rho]|Nonphysical_|Linear_Solve|   LinSolRes|    Avg_Mach|   Avg_Press|
+------------------------------------------------------------------------------------------+
|           0|   -1.062011|           0|           4|   -7.549957|  9.4931e-10  9.4931e-10|  1.0043e+05  1.0043e+05|
|          50|   -2.466498|           2|          14|   -6.080973|  8.4092e-02  8.4092e-02|  1.0378e+05  1.0378e+05|
|         100|   -3.229724|           2|          13|   -6.111044|  7.2310e-02  7.2310e-02|  9.6099e+04  9.6099e+04|
|         150|   -3.669721|           2|          11|   -6.008095|  7.0495e-02  7.0495e-02|  9.1909e+04  9.1909e+04|
|         200|   -3.850966|           2|           9|   -6.040953|  7.0835e-02  7.0835e-02|  9.1884e+04  9.1884e+04|
|         250|   -3.854146|           2|           8|   -6.272268|  7.0823e-02  7.0823e-02|  9.1886e+04  9.1886e+04|
|         300|   -3.854466|           2|           8|   -6.480234|  7.0820e-02  7.0820e-02|  9.1886e+04  9.1886e+04|
|         350|   -3.854524|           2|           7|   -6.066918|  7.0819e-02  7.0819e-02|  9.1886e+04  9.1886e+04|
|         400|   -3.854537|           2|           7|   -6.081386|  7.0819e-02  7.0819e-02|  9.1886e+04  9.1886e+04|
|         450|   -3.854541|           2|           7|   -6.082601|  7.0819e-02  7.0819e-02|  9.1886e+04  9.1886e+04|
|         500|   -3.854541|           2|           7|   -6.082703|  7.0819e-02  7.0819e-02|  9.1886e+04  9.1886e+04|
|         550|   -3.854542|           2|           7|   -6.082714|  7.0819e-02  7.0819e-02|  9.1886e+04  9.1886e+04|
|         600|   -3.854542|           2|           7|   -6.082715|  7.0819e-02  7.0819e-02|  9.1886e+04  9.1886e+04|
|         650|   -3.854542|           2|           7|   -6.082716|  7.0819e-02  7.0819e-02|  9.1886e+04  9.1886e+04|
|         700|   -3.854542|           2|           7|   -6.082716|  7.0819e-02  7.0819e-02|  9.1886e+04  9.1886e+04|
|         750|   -3.854542|           2|           7|   -6.082716|  7.0819e-02  7.0819e-02|  9.1886e+04  9.1886e+04|
|         800|   -3.854542|           2|           7|   -6.082716|  7.0819e-02  7.0819e-02|  9.1886e+04  9.1886e+04|
|         850|   -3.854542|           2|           7|   -6.082716|  7.0819e-02  7.0819e-02|  9.1886e+04  9.1886e+04|
|         900|   -3.854542|           2|           7|   -6.082716|  7.0819e-02  7.0819e-02|  9.1886e+04  9.1886e+04|
|         950|   -3.854542|           2|           7|   -6.082716|  7.0819e-02  7.0819e-02|  9.1886e+04  9.1886e+04|
|        1000|   -3.854542|           2|           7|   -6.082716|  7.0819e-02  7.0819e-02|  9.1886e+04  9.1886e+04|
+-----------------------------------------------------------------------+
|        File Writing Summary       |              Filename             |
+-----------------------------------------------------------------------+
|SU2 restart                        |solution.dat                       |
|SU2 ASCII restart                  |solution.csv                       |
|Paraview                           |flow.vtu                           |
|Tecplot ASCII                      |flow.dat                           |
|Paraview surface                   |surface_flow.vtu                   |
+-----------------------------------------------------------------------+
+------------------------------------------------------------------------------------------+
|  Inner_Iter|    rms[Rho]|Nonphysical_|Linear_Solve|   LinSolRes|    Avg_Mach|   Avg_Press|
+------------------------------------------------------------------------------------------+
|        1050|   -3.854542|           2|           7|   -6.082716|  7.0819e-02  7.0819e-02|  9.1886e+04  9.1886e+04|
|        1100|   -3.854542|           2|           7|   -6.082716|  7.0819e-02  7.0819e-02|  9.1886e+04  9.1886e+04|
|        1150|   -3.933739|           2|           4|   -6.365229|  7.0819e-02  7.0819e-02|  9.1886e+04  9.1886e+04|
|        1200|   -3.821917|           2|          10|   -6.192794|  7.0779e-02  7.0779e-02|  9.1891e+04  9.1891e+04|
|        1250|   -3.839411|           2|           8|   -6.160231|  7.0818e-02  7.0818e-02|  9.1886e+04  9.1886e+04|
|        1300|   -3.839301|           2|           7|   -6.096842|  7.0827e-02  7.0827e-02|  9.1885e+04  9.1885e+04|
|        1350|   -3.839272|           2|           7|   -6.125541|  7.0827e-02  7.0827e-02|  9.1885e+04  9.1885e+04|
|        1400|   -3.839271|           2|           7|   -6.125627|  7.0827e-02  7.0827e-02|  9.1885e+04  9.1885e+04|
|        1450|   -3.839271|           2|           7|   -6.125597|  7.0827e-02  7.0827e-02|  9.1885e+04  9.1885e+04|
|        1500|   -3.839272|           2|           7|   -6.125597|  7.0827e-02  7.0827e-02|  9.1885e+04  9.1885e+04|
|        1550|   -3.839272|           2|           7|   -6.125598|  7.0827e-02  7.0827e-02|  9.1885e+04  9.1885e+04|
|        1600|   -3.839272|           2|           7|   -6.125598|  7.0827e-02  7.0827e-02|  9.1885e+04  9.1885e+04|
|        1650|   -3.839272|           2|           7|   -6.125598|  7.0827e-02  7.0827e-02|  9.1885e+04  9.1885e+04|
|        1700|   -3.839272|           2|           7|   -6.125598|  7.0827e-02  7.0827e-02|  9.1885e+04  9.1885e+04|
|        1750|   -3.839272|           2|           7|   -6.125598|  7.0827e-02  7.0827e-02|  9.1885e+04  9.1885e+04|
|        1800|   -3.839272|           2|           7|   -6.125598|  7.0827e-02  7.0827e-02|  9.1885e+04  9.1885e+04|
|        1850|   -3.839272|           2|           7|   -6.125598|  7.0827e-02  7.0827e-02|  9.1885e+04  9.1885e+04|
|        1900|   -3.839272|           2|           7|   -6.125598|  7.0827e-02  7.0827e-02|  9.1885e+04  9.1885e+04|
|        1950|   -3.839272|           2|           7|   -6.125598|  7.0827e-02  7.0827e-02|  9.1885e+04  9.1885e+04|
|        2000|   -3.904235|           2|           5|   -6.756650|  7.0827e-02  7.0827e-02|  9.1885e+04  9.1885e+04|
+-----------------------------------------------------------------------+
|        File Writing Summary       |              Filename             |
+-----------------------------------------------------------------------+
|SU2 restart                        |solution.dat                       |
|SU2 ASCII restart                  |solution.csv                       |
|Paraview                           |flow.vtu                           |
|Tecplot ASCII                      |flow.dat                           |
|Paraview surface                   |surface_flow.vtu                   |
+-----------------------------------------------------------------------+
+------------------------------------------------------------------------------------------+
|  Inner_Iter|    rms[Rho]|Nonphysical_|Linear_Solve|   LinSolRes|    Avg_Mach|   Avg_Press|
+------------------------------------------------------------------------------------------+
|        2050|   -3.966718|           2|           5|   -6.977830|  7.0827e-02  7.0827e-02|  9.1885e+04  9.1885e+04|
|        2100|   -3.843197|           2|           8|   -6.025793|  7.0840e-02  7.0840e-02|  9.1883e+04  9.1883e+04|
|        2150|   -3.842819|           2|           7|   -6.052815|  7.0826e-02  7.0826e-02|  9.1885e+04  9.1885e+04|
|        2200|   -3.842854|           2|           7|   -6.109870|  7.0825e-02  7.0825e-02|  9.1885e+04  9.1885e+04|
|        2250|   -3.842859|           2|           7|   -6.109893|  7.0825e-02  7.0825e-02|  9.1885e+04  9.1885e+04|
|        2300|   -3.842860|           2|           7|   -6.109935|  7.0825e-02  7.0825e-02|  9.1885e+04  9.1885e+04|
|        2350|   -3.842860|           2|           7|   -6.109941|  7.0825e-02  7.0825e-02|  9.1885e+04  9.1885e+04|
|        2400|   -3.842860|           2|           7|   -6.109942|  7.0825e-02  7.0825e-02|  9.1885e+04  9.1885e+04|
|        2450|   -3.842860|           2|           7|   -6.109942|  7.0825e-02  7.0825e-02|  9.1885e+04  9.1885e+04|
|        2500|   -3.842860|           2|           7|   -6.109942|  7.0825e-02  7.0825e-02|  9.1885e+04  9.1885e+04|
|        2550|   -3.842860|           2|           7|   -6.109942|  7.0825e-02  7.0825e-02|  9.1885e+04  9.1885e+04|
|        2600|   -3.842860|           2|           7|   -6.109942|  7.0825e-02  7.0825e-02|  9.1885e+04  9.1885e+04|
|        2650|   -3.842860|           2|           7|   -6.109942|  7.0825e-02  7.0825e-02|  9.1885e+04  9.1885e+04|
|        2700|   -3.842860|           2|           7|   -6.109942|  7.0825e-02  7.0825e-02|  9.1885e+04  9.1885e+04|
|        2750|   -3.842860|           2|           7|   -6.109942|  7.0825e-02  7.0825e-02|  9.1885e+04  9.1885e+04|
|        2800|   -3.842860|           2|           7|   -6.109942|  7.0825e-02  7.0825e-02|  9.1885e+04  9.1885e+04|
|        2850|   -3.955488|           2|           5|   -6.965365|  7.0825e-02  7.0825e-02|  9.1885e+04  9.1885e+04|
|        2900|   -3.835062|           2|           9|   -6.246662|  7.0841e-02  7.0841e-02|  9.1884e+04  9.1884e+04|
|        2950|   -3.836483|           2|           8|   -6.421872|  7.0828e-02  7.0828e-02|  9.1885e+04  9.1885e+04|
|        3000|   -3.836640|           2|           7|   -6.123851|  7.0828e-02  7.0828e-02|  9.1885e+04  9.1885e+04|
+-----------------------------------------------------------------------+
|        File Writing Summary       |              Filename             |
+-----------------------------------------------------------------------+
|SU2 restart                        |solution.dat                       |
|SU2 ASCII restart                  |solution.csv                       |
|Paraview                           |flow.vtu                           |
|Tecplot ASCII                      |flow.dat                           |
|Paraview surface                   |surface_flow.vtu                   |
+-----------------------------------------------------------------------+
+------------------------------------------------------------------------------------------+
|  Inner_Iter|    rms[Rho]|Nonphysical_|Linear_Solve|   LinSolRes|    Avg_Mach|   Avg_Press|
+------------------------------------------------------------------------------------------+
|        3050|   -3.836641|           2|           7|   -6.129905|  7.0828e-02  7.0828e-02|  9.1885e+04  9.1885e+04|
|        3100|   -3.836641|           2|           7|   -6.130166|  7.0828e-02  7.0828e-02|  9.1885e+04  9.1885e+04|
|        3150|   -3.836641|           2|           7|   -6.130174|  7.0828e-02  7.0828e-02|  9.1885e+04  9.1885e+04|
|        3200|   -3.836641|           2|           7|   -6.130174|  7.0828e-02  7.0828e-02|  9.1885e+04  9.1885e+04|
|        3250|   -3.836641|           2|           7|   -6.130174|  7.0828e-02  7.0828e-02|  9.1885e+04  9.1885e+04|
|        3300|   -3.836641|           2|           7|   -6.130174|  7.0828e-02  7.0828e-02|  9.1885e+04  9.1885e+04|
|        3350|   -3.836641|           2|           7|   -6.130174|  7.0828e-02  7.0828e-02|  9.1885e+04  9.1885e+04|
|        3400|   -3.836641|           2|           7|   -6.130174|  7.0828e-02  7.0828e-02|  9.1885e+04  9.1885e+04|
|        3450|   -3.836641|           2|           7|   -6.130174|  7.0828e-02  7.0828e-02|  9.1885e+04  9.1885e+04|
|        3500|   -3.836641|           2|           7|   -6.130174|  7.0828e-02  7.0828e-02|  9.1885e+04  9.1885e+04|
|        3550|   -3.836641|           2|           7|   -6.130174|  7.0828e-02  7.0828e-02|  9.1885e+04  9.1885e+04|
|        3600|   -3.836641|           2|           7|   -6.130174|  7.0828e-02  7.0828e-02|  9.1885e+04  9.1885e+04|
|        3650|   -3.836641|           2|           7|   -6.130174|  7.0828e-02  7.0828e-02|  9.1885e+04  9.1885e+04|
|        3700|   -3.828995|           2|          10|   -6.291571|  7.0824e-02  7.0824e-02|  9.1885e+04  9.1885e+04|
|        3750|   -3.842888|           2|           8|   -6.296631|  7.0821e-02  7.0821e-02|  9.1886e+04  9.1886e+04|
|        3800|   -3.842602|           2|           7|   -6.097991|  7.0825e-02  7.0825e-02|  9.1885e+04  9.1885e+04|
|        3850|   -3.842588|           2|           7|   -6.104253|  7.0825e-02  7.0825e-02|  9.1885e+04  9.1885e+04|
|        3900|   -3.842588|           2|           7|   -6.103967|  7.0825e-02  7.0825e-02|  9.1885e+04  9.1885e+04|
|        3950|   -3.842588|           2|           7|   -6.103947|  7.0825e-02  7.0825e-02|  9.1885e+04  9.1885e+04|
|        4000|   -3.842588|           2|           7|   -6.103947|  7.0825e-02  7.0825e-02|  9.1885e+04  9.1885e+04|
+-----------------------------------------------------------------------+
|        File Writing Summary       |              Filename             |
+-----------------------------------------------------------------------+
|SU2 restart                        |solution.dat                       |
|SU2 ASCII restart                  |solution.csv                       |
|Paraview                           |flow.vtu                           |
|Tecplot ASCII                      |flow.dat                           |
|Paraview surface                   |surface_flow.vtu                   |
+-----------------------------------------------------------------------+
+------------------------------------------------------------------------------------------+
|  Inner_Iter|    rms[Rho]|Nonphysical_|Linear_Solve|   LinSolRes|    Avg_Mach|   Avg_Press|
+------------------------------------------------------------------------------------------+
|        4050|   -3.842588|           2|           7|   -6.103947|  7.0825e-02  7.0825e-02|  9.1885e+04  9.1885e+04|
|        4100|   -3.842588|           2|           7|   -6.103947|  7.0825e-02  7.0825e-02|  9.1885e+04  9.1885e+04|
|        4150|   -3.842588|           2|           7|   -6.103947|  7.0825e-02  7.0825e-02|  9.1885e+04  9.1885e+04|
|        4200|   -3.842588|           2|           7|   -6.103947|  7.0825e-02  7.0825e-02|  9.1885e+04  9.1885e+04|
|        4250|   -3.842588|           2|           7|   -6.103947|  7.0825e-02  7.0825e-02|  9.1885e+04  9.1885e+04|
|        4300|   -3.958697|           2|           3|   -7.739316|  7.0825e-02  7.0825e-02|  9.1885e+04  9.1885e+04|
|        4350|   -3.947348|           2|           3|   -6.918500|  7.0825e-02  7.0825e-02|  9.1885e+04  9.1885e+04|
|        4400|   -3.844649|           2|           9|   -6.269551|  7.0863e-02  7.0863e-02|  9.1881e+04  9.1881e+04|
|        4450|   -3.844836|           2|           8|   -6.449731|  7.0825e-02  7.0825e-02|  9.1886e+04  9.1886e+04|
|        4500|   -3.844952|           2|           7|   -6.091363|  7.0823e-02  7.0823e-02|  9.1886e+04  9.1886e+04|
|        4550|   -3.844958|           2|           7|   -6.093187|  7.0823e-02  7.0823e-02|  9.1886e+04  9.1886e+04|
|        4600|   -3.844958|           2|           7|   -6.093330|  7.0823e-02  7.0823e-02|  9.1886e+04  9.1886e+04|
|        4650|   -3.844958|           2|           7|   -6.093339|  7.0823e-02  7.0823e-02|  9.1886e+04  9.1886e+04|
|        4700|   -3.844958|           2|           7|   -6.093339|  7.0823e-02  7.0823e-02|  9.1886e+04  9.1886e+04|
|        4750|   -3.844958|           2|           7|   -6.093339|  7.0823e-02  7.0823e-02|  9.1886e+04  9.1886e+04|
|        4800|   -3.844958|           2|           7|   -6.093339|  7.0823e-02  7.0823e-02|  9.1886e+04  9.1886e+04|
|        4850|   -3.844958|           2|           7|   -6.093339|  7.0823e-02  7.0823e-02|  9.1886e+04  9.1886e+04|
|        4900|   -3.844958|           2|           7|   -6.093339|  7.0823e-02  7.0823e-02|  9.1886e+04  9.1886e+04|
|        4950|   -3.844958|           2|           7|   -6.093339|  7.0823e-02  7.0823e-02|  9.1886e+04  9.1886e+04|
|        5000|   -3.844958|           2|           7|   -6.093339|  7.0823e-02  7.0823e-02|  9.1886e+04  9.1886e+04|
+-----------------------------------------------------------------------+
|        File Writing Summary       |              Filename             |
+-----------------------------------------------------------------------+
|SU2 restart                        |solution.dat                       |
|SU2 ASCII restart                  |solution.csv                       |
|Paraview                           |flow.vtu                           |
|Tecplot ASCII                      |flow.dat                           |
|Paraview surface                   |surface_flow.vtu                   |
+-----------------------------------------------------------------------+
+------------------------------------------------------------------------------------------+
|  Inner_Iter|    rms[Rho]|Nonphysical_|Linear_Solve|   LinSolRes|    Avg_Mach|   Avg_Press|
+------------------------------------------------------------------------------------------+
|        5050|   -3.844958|           2|           7|   -6.093339|  7.0823e-02  7.0823e-02|  9.1886e+04  9.1886e+04|
|        5100|   -3.844958|           2|           7|   -6.093339|  7.0823e-02  7.0823e-02|  9.1886e+04  9.1886e+04|
|        5150|   -3.958912|           2|           3|   -7.742847|  7.0823e-02  7.0823e-02|  9.1886e+04  9.1886e+04|
|        5200|   -3.927425|           2|           6|   -6.529009|  7.0823e-02  7.0823e-02|  9.1886e+04  9.1886e+04|
|        5250|   -3.843588|           2|           8|   -6.078860|  7.0828e-02  7.0828e-02|  9.1885e+04  9.1885e+04|
|        5300|   -3.843063|           2|           7|   -6.064364|  7.0825e-02  7.0825e-02|  9.1885e+04  9.1885e+04|
|        5350|   -3.843069|           2|           7|   -6.102043|  7.0824e-02  7.0824e-02|  9.1885e+04  9.1885e+04|
|        5400|   -3.843073|           2|           7|   -6.101773|  7.0824e-02  7.0824e-02|  9.1885e+04  9.1885e+04|
|        5450|   -3.843073|           2|           7|   -6.101777|  7.0824e-02  7.0824e-02|  9.1885e+04  9.1885e+04|
|        5500|   -3.843073|           2|           7|   -6.101783|  7.0824e-02  7.0824e-02|  9.1885e+04  9.1885e+04|
|        5550|   -3.843073|           2|           7|   -6.101783|  7.0824e-02  7.0824e-02|  9.1885e+04  9.1885e+04|
|        5600|   -3.843073|           2|           7|   -6.101783|  7.0824e-02  7.0824e-02|  9.1885e+04  9.1885e+04|
|        5650|   -3.843073|           2|           7|   -6.101783|  7.0824e-02  7.0824e-02|  9.1885e+04  9.1885e+04|
|        5700|   -3.843073|           2|           7|   -6.101783|  7.0824e-02  7.0824e-02|  9.1885e+04  9.1885e+04|
|        5750|   -3.843073|           2|           7|   -6.101783|  7.0824e-02  7.0824e-02|  9.1885e+04  9.1885e+04|
|        5800|   -3.843073|           2|           7|   -6.101783|  7.0824e-02  7.0824e-02|  9.1885e+04  9.1885e+04|
|        5850|   -3.843073|           2|           7|   -6.101783|  7.0824e-02  7.0824e-02|  9.1885e+04  9.1885e+04|
|        5900|   -3.843073|           2|           7|   -6.101783|  7.0824e-02  7.0824e-02|  9.1885e+04  9.1885e+04|
|        5950|   -3.843073|           2|           7|   -6.101783|  7.0824e-02  7.0824e-02|  9.1885e+04  9.1885e+04|
|        6000|   -3.963016|           2|           3|   -7.500615|  7.0824e-02  7.0824e-02|  9.1885e+04  9.1885e+04|
+-----------------------------------------------------------------------+
|        File Writing Summary       |              Filename             |
+-----------------------------------------------------------------------+
|SU2 restart                        |solution.dat                       |
|SU2 ASCII restart                  |solution.csv                       |
|Paraview                           |flow.vtu                           |
|Tecplot ASCII                      |flow.dat                           |
|Paraview surface                   |surface_flow.vtu                   |
+-----------------------------------------------------------------------+
+------------------------------------------------------------------------------------------+
|  Inner_Iter|    rms[Rho]|Nonphysical_|Linear_Solve|   LinSolRes|    Avg_Mach|   Avg_Press|
+------------------------------------------------------------------------------------------+
|        6050|   -3.959250|           2|           3|   -6.248821|  7.0824e-02  7.0824e-02|  9.1885e+04  9.1885e+04|
|        6100|   -3.836831|           2|           9|   -6.276140|  7.0866e-02  7.0866e-02|  9.1880e+04  9.1880e+04|
|        6150|   -3.836535|           2|           8|   -6.456442|  7.0830e-02  7.0830e-02|  9.1885e+04  9.1885e+04|
|        6200|   -3.836631|           2|           7|   -6.128339|  7.0828e-02  7.0828e-02|  9.1885e+04  9.1885e+04|
|        6250|   -3.836640|           2|           7|   -6.130007|  7.0828e-02  7.0828e-02|  9.1885e+04  9.1885e+04|
|        6300|   -3.836641|           2|           7|   -6.130156|  7.0828e-02  7.0828e-02|  9.1885e+04  9.1885e+04|
|        6350|   -3.836641|           2|           7|   -6.130172|  7.0828e-02  7.0828e-02|  9.1885e+04  9.1885e+04|
|        6400|   -3.836641|           2|           7|   -6.130174|  7.0828e-02  7.0828e-02|  9.1885e+04  9.1885e+04|
|        6450|   -3.836641|           2|           7|   -6.130174|  7.0828e-02  7.0828e-02|  9.1885e+04  9.1885e+04|
|        6500|   -3.836641|           2|           7|   -6.130174|  7.0828e-02  7.0828e-02|  9.1885e+04  9.1885e+04|
|        6550|   -3.836641|           2|           7|   -6.130174|  7.0828e-02  7.0828e-02|  9.1885e+04  9.1885e+04|
|        6600|   -3.836641|           2|           7|   -6.130174|  7.0828e-02  7.0828e-02|  9.1885e+04  9.1885e+04|
|        6650|   -3.836641|           2|           7|   -6.130174|  7.0828e-02  7.0828e-02|  9.1885e+04  9.1885e+04|
|        6700|   -3.836641|           2|           7|   -6.130174|  7.0828e-02  7.0828e-02|  9.1885e+04  9.1885e+04|
|        6750|   -3.836641|           2|           7|   -6.130174|  7.0828e-02  7.0828e-02|  9.1885e+04  9.1885e+04|
|        6800|   -3.836641|           2|           7|   -6.130174|  7.0828e-02  7.0828e-02|  9.1885e+04  9.1885e+04|
|        6850|   -3.836641|           2|           7|   -6.130174|  7.0828e-02  7.0828e-02|  9.1885e+04  9.1885e+04|
|        6900|   -3.944990|           2|           3|   -6.671105|  7.0828e-02  7.0828e-02|  9.1885e+04  9.1885e+04|
|        6950|   -3.835502|           2|           9|   -6.075746|  7.0785e-02  7.0785e-02|  9.1891e+04  9.1891e+04|
|        7000|   -3.840164|           2|           8|   -6.358165|  7.0822e-02  7.0822e-02|  9.1886e+04  9.1886e+04|
+-----------------------------------------------------------------------+
|        File Writing Summary       |              Filename             |
+-----------------------------------------------------------------------+
|SU2 restart                        |solution.dat                       |
|SU2 ASCII restart                  |solution.csv                       |
|Paraview                           |flow.vtu                           |
|Tecplot ASCII                      |flow.dat                           |
|Paraview surface                   |surface_flow.vtu                   |
+-----------------------------------------------------------------------+
+------------------------------------------------------------------------------------------+
|  Inner_Iter|    rms[Rho]|Nonphysical_|Linear_Solve|   LinSolRes|    Avg_Mach|   Avg_Press|
+------------------------------------------------------------------------------------------+
|        7050|   -3.840224|           2|           7|   -6.104314|  7.0826e-02  7.0826e-02|  9.1885e+04  9.1885e+04|
|        7100|   -3.840212|           2|           7|   -6.114382|  7.0826e-02  7.0826e-02|  9.1885e+04  9.1885e+04|
|        7150|   -3.840211|           2|           7|   -6.114509|  7.0826e-02  7.0826e-02|  9.1885e+04  9.1885e+04|
|        7200|   -3.840211|           2|           7|   -6.114497|  7.0826e-02  7.0826e-02|  9.1885e+04  9.1885e+04|
|        7250|   -3.840211|           2|           7|   -6.114496|  7.0826e-02  7.0826e-02|  9.1885e+04  9.1885e+04|
|        7300|   -3.840211|           2|           7|   -6.114496|  7.0826e-02  7.0826e-02|  9.1885e+04  9.1885e+04|
|        7350|   -3.840211|           2|           7|   -6.114496|  7.0826e-02  7.0826e-02|  9.1885e+04  9.1885e+04|
|        7400|   -3.840211|           2|           7|   -6.114496|  7.0826e-02  7.0826e-02|  9.1885e+04  9.1885e+04|
|        7450|   -3.840211|           2|           7|   -6.114496|  7.0826e-02  7.0826e-02|  9.1885e+04  9.1885e+04|
|        7500|   -3.840211|           2|           7|   -6.114496|  7.0826e-02  7.0826e-02|  9.1885e+04  9.1885e+04|
|        7550|   -3.840211|           2|           7|   -6.114496|  7.0826e-02  7.0826e-02|  9.1885e+04  9.1885e+04|
|        7600|   -3.840211|           2|           7|   -6.114496|  7.0826e-02  7.0826e-02|  9.1885e+04  9.1885e+04|
|        7650|   -3.840211|           2|           7|   -6.114496|  7.0826e-02  7.0826e-02|  9.1885e+04  9.1885e+04|
|        7700|   -3.960808|           2|           4|   -6.652997|  7.0826e-02  7.0826e-02|  9.1885e+04  9.1885e+04|
|        7750|   -3.967182|           2|           5|   -6.959233|  7.0826e-02  7.0826e-02|  9.1885e+04  9.1885e+04|
|        7800|   -3.841903|           2|           9|   -6.338350|  7.0842e-02  7.0842e-02|  9.1883e+04  9.1883e+04|
|        7850|   -3.841355|           2|           7|   -6.024111|  7.0826e-02  7.0826e-02|  9.1885e+04  9.1885e+04|
|        7900|   -3.841393|           2|           7|   -6.108989|  7.0825e-02  7.0825e-02|  9.1885e+04  9.1885e+04|
|        7950|   -3.841400|           2|           7|   -6.109175|  7.0825e-02  7.0825e-02|  9.1885e+04  9.1885e+04|
|        8000|   -3.841400|           2|           7|   -6.109220|  7.0825e-02  7.0825e-02|  9.1885e+04  9.1885e+04|
+-----------------------------------------------------------------------+
|        File Writing Summary       |              Filename             |
+-----------------------------------------------------------------------+
|SU2 restart                        |solution.dat                       |
|SU2 ASCII restart                  |solution.csv                       |
|Paraview                           |flow.vtu                           |
|Tecplot ASCII                      |flow.dat                           |
|Paraview surface                   |surface_flow.vtu                   |
+-----------------------------------------------------------------------+
+------------------------------------------------------------------------------------------+
|  Inner_Iter|    rms[Rho]|Nonphysical_|Linear_Solve|   LinSolRes|    Avg_Mach|   Avg_Press|
+------------------------------------------------------------------------------------------+
|        8050|   -3.841400|           2|           7|   -6.109229|  7.0825e-02  7.0825e-02|  9.1885e+04  9.1885e+04|
|        8100|   -3.841400|           2|           7|   -6.109230|  7.0825e-02  7.0825e-02|  9.1885e+04  9.1885e+04|
|        8150|   -3.841400|           2|           7|   -6.109230|  7.0825e-02  7.0825e-02|  9.1885e+04  9.1885e+04|
|        8200|   -3.841400|           2|           7|   -6.109230|  7.0825e-02  7.0825e-02|  9.1885e+04  9.1885e+04|
|        8250|   -3.841400|           2|           7|   -6.109230|  7.0825e-02  7.0825e-02|  9.1885e+04  9.1885e+04|
|        8300|   -3.841400|           2|           7|   -6.109230|  7.0825e-02  7.0825e-02|  9.1885e+04  9.1885e+04|
|        8350|   -3.841400|           2|           7|   -6.109230|  7.0825e-02  7.0825e-02|  9.1885e+04  9.1885e+04|
|        8400|   -3.841400|           2|           7|   -6.109230|  7.0825e-02  7.0825e-02|  9.1885e+04  9.1885e+04|
|        8450|   -3.841400|           2|           7|   -6.109230|  7.0825e-02  7.0825e-02|  9.1885e+04  9.1885e+04|
|        8500|   -3.841400|           2|           7|   -6.109230|  7.0825e-02  7.0825e-02|  9.1885e+04  9.1885e+04|
|        8550|   -3.952814|           2|           3|   -7.698527|  7.0825e-02  7.0825e-02|  9.1885e+04  9.1885e+04|
|        8600|   -3.957314|           2|           5|   -6.446179|  7.0825e-02  7.0825e-02|  9.1885e+04  9.1885e+04|
|        8650|   -3.839565|           2|           9|   -6.222996|  7.0869e-02  7.0869e-02|  9.1880e+04  9.1880e+04|
|        8700|   -3.840054|           2|           8|   -6.422448|  7.0827e-02  7.0827e-02|  9.1885e+04  9.1885e+04|
|        8750|   -3.840205|           2|           7|   -6.110775|  7.0826e-02  7.0826e-02|  9.1885e+04  9.1885e+04|
|        8800|   -3.840211|           2|           7|   -6.114266|  7.0826e-02  7.0826e-02|  9.1885e+04  9.1885e+04|
|        8850|   -3.840211|           2|           7|   -6.114483|  7.0826e-02  7.0826e-02|  9.1885e+04  9.1885e+04|
|        8900|   -3.840211|           2|           7|   -6.114495|  7.0826e-02  7.0826e-02|  9.1885e+04  9.1885e+04|
|        8950|   -3.840211|           2|           7|   -6.114496|  7.0826e-02  7.0826e-02|  9.1885e+04  9.1885e+04|
|        9000|   -3.840211|           2|           7|   -6.114496|  7.0826e-02  7.0826e-02|  9.1885e+04  9.1885e+04|
+-----------------------------------------------------------------------+
|        File Writing Summary       |              Filename             |
+-----------------------------------------------------------------------+
|SU2 restart                        |solution.dat                       |
|SU2 ASCII restart                  |solution.csv                       |
|Paraview                           |flow.vtu                           |
|Tecplot ASCII                      |flow.dat                           |
|Paraview surface                   |surface_flow.vtu                   |
+-----------------------------------------------------------------------+
+------------------------------------------------------------------------------------------+
|  Inner_Iter|    rms[Rho]|Nonphysical_|Linear_Solve|   LinSolRes|    Avg_Mach|   Avg_Press|
+------------------------------------------------------------------------------------------+
|        9050|   -3.840211|           2|           7|   -6.114496|  7.0826e-02  7.0826e-02|  9.1885e+04  9.1885e+04|
|        9100|   -3.840211|           2|           7|   -6.114496|  7.0826e-02  7.0826e-02|  9.1885e+04  9.1885e+04|
|        9150|   -3.840211|           2|           7|   -6.114496|  7.0826e-02  7.0826e-02|  9.1885e+04  9.1885e+04|
|        9200|   -3.840211|           2|           7|   -6.114496|  7.0826e-02  7.0826e-02|  9.1885e+04  9.1885e+04|
|        9250|   -3.840211|           2|           7|   -6.114496|  7.0826e-02  7.0826e-02|  9.1885e+04  9.1885e+04|
|        9300|   -3.840211|           2|           7|   -6.114496|  7.0826e-02  7.0826e-02|  9.1885e+04  9.1885e+04|
|        9350|   -3.840211|           2|           7|   -6.114496|  7.0826e-02  7.0826e-02|  9.1885e+04  9.1885e+04|
|        9400|   -3.840211|           2|           7|   -6.114496|  7.0826e-02  7.0826e-02|  9.1885e+04  9.1885e+04|
|        9450|   -3.962027|           2|           4|   -7.093767|  7.0826e-02  7.0826e-02|  9.1885e+04  9.1885e+04|
|        9500|   -3.833999|           2|           9|   -6.193281|  7.0819e-02  7.0819e-02|  9.1886e+04  9.1886e+04|
|        9550|   -3.836495|           2|           8|   -6.395446|  7.0827e-02  7.0827e-02|  9.1885e+04  9.1885e+04|
|        9600|   -3.836645|           2|           7|   -6.121402|  7.0828e-02  7.0828e-02|  9.1885e+04  9.1885e+04|
|        9650|   -3.836642|           2|           7|   -6.129908|  7.0828e-02  7.0828e-02|  9.1885e+04  9.1885e+04|
|        9700|   -3.836641|           2|           7|   -6.130172|  7.0828e-02  7.0828e-02|  9.1885e+04  9.1885e+04|
|        9750|   -3.836641|           2|           7|   -6.130174|  7.0828e-02  7.0828e-02|  9.1885e+04  9.1885e+04|
|        9800|   -3.836641|           2|           7|   -6.130174|  7.0828e-02  7.0828e-02|  9.1885e+04  9.1885e+04|
|        9850|   -3.836641|           2|           7|   -6.130174|  7.0828e-02  7.0828e-02|  9.1885e+04  9.1885e+04|
|        9900|   -3.836641|           2|           7|   -6.130174|  7.0828e-02  7.0828e-02|  9.1885e+04  9.1885e+04|
|        9950|   -3.836641|           2|           7|   -6.130174|  7.0828e-02  7.0828e-02|  9.1885e+04  9.1885e+04|
|        9999|   -3.836641|           2|           7|   -6.130174|  7.0828e-02  7.0828e-02|  9.1885e+04  9.1885e+04|

----------------------------- Solver Exit -------------------------------

Maximum number of iterations reached (ITER = 10000) before convergence.
+-----------------------------------------------------------------------+
|      Convergence Field     |     Value    |   Criterion  |  Converged |
+-----------------------------------------------------------------------+
|                    rms[Rho]|      -3.83664|         < -20|          No|
+-----------------------------------------------------------------------+
-------------------------------------------------------------------------
+-----------------------------------------------------------------------+
|        File Writing Summary       |              Filename             |
+-----------------------------------------------------------------------+
|SU2 restart                        |solution.dat                       |
|SU2 ASCII restart                  |solution.csv                       |
|Paraview                           |flow.vtu                           |
|Tecplot ASCII                      |flow.dat                           |
|Paraview surface                   |surface_flow.vtu                   |
+-----------------------------------------------------------------------+
Warning: there are 2 non-physical points in the solution.

------------------------- Solver Postprocessing -------------------------
Deleted CNumerics container.
Deleted CIntegration container.
Deleted CSolver container.
Deleted CIteration container.
Deleted CInterface container.
Deleted CGeometry container.
Deleted CFreeFormDefBox class.
Deleted CSurfaceMovement class.
Deleted CVolumetricMovement class.
Deleted CConfig container.
Deleted nInst container.
Deleted COutput class.
-------------------------------------------------------------------------

------------------------- Exit Success (SU2_CFD) ------------------------



=======================================================================
=======================================================================
                       PREPROCESSING - LEVEL 1
 
  -------------------------------------------------------------------
    NODE-PAIR CODE   -   PREPROCESSING PHASE
  -------------------------------------------------------------------
    Department of Aerospace Engineering - Politecnico di Milano
    authors: Alberto Guardone, Marco Fossati
 
    Warning: Check the status of file CORNERS.grid_name
 
 
    Domain nodes:         3347
    Boundary nodes:          604
    Domain elements:         6337
    Boundary elements:          302
 
    Generating node-pairs...
    I have found         9789  node-pairs in the domain
    I have found          302  node-pairs in the boundary
 
    Generating metric quantities...
    Domain finite element metrics...
    Domain finite volumes metrics...
    Boundary metrics...
 
    Checking metric consistency...
      FEM maximum eta residual on DOMAIN points --->  4.3790177119782256E-30
      - on domain node           88
      - of coordinates   0.100000000000000        8.85290749336226     
      FEM maximum eta residual on BOUNDARY points --->  1.4127434214646825E-29
      - on boundary node          164    (domain            43 )
      - of coordinates   0.000000000000000E+000   11.6353110119263     
 
      Domain area (cell) =   1089.81007505642     
      Domain area (mass,mass_ii) =   1089.81007505642     
      Boundary closure (xi) =  1.355720544016396E-013
      Boundary closure (chi) =  6.200327846081764E-015
 
      FVM maximum eta residual on DOMAIN points --->  5.1786177606535535E-32
      - on domain node         1523
      - of coordinates  -9.378070040652669E-003   2.41408986615917     
      FVM maximum eta residual on BOUNDARY points --->  5.8438751863221923E-28
      - on boundary node          186    (domain            54 )
      - of coordinates   0.000000000000000E+000   16.2500000000000     
 
    done
 
    Generating rotation matrices...
    done
 
    Saving...
    node-pairs...
    metric quantities...
    done
 
    Elapsed time   0.4280E+00 s
 


=======================================================================
=======================================================================
                     MESH ADAPTATION - LEVEL 1
 
  -------------------------------------------------------------------
    DARWIN
  -------------------------------------------------------------------
    CFD Laboratory - McGill University
    2009-2012 - Marco Fossati
    Department of Aerospace Engineering - Politecnico di Milano
    2003-2009 - Alberto Guardone, Marco Fossati
 
    Reading grid 0 ...
    Reading SU2 solution
    - equations:  Euler
    - thermodynamics:  not used

    Adapt grid from level 0 to level 1
    Averaging error...
    Quality enforcement...
    - edges marked for quality enforcement:        5
 
    Grid 1 nodes     5512 element    10564
 
    Postprocessing
    - errors.INL.plt
    - admesh.INL.plt
    - admesh.INL.su2
 


=======================================================================
=======================================================================
                            SU2 - LEVEL 1



MPI - REPORT BINDINGS:
[minion14:16910] MCW rank 7 bound to socket 1[core 9[hwt 0-1]]: [../../../../../..][../../../BB/../..]
[minion14:16910] MCW rank 8 bound to socket 0[core 4[hwt 0-1]]: [../../../../BB/..][../../../../../..]
[minion14:16910] MCW rank 9 bound to socket 1[core 10[hwt 0-1]]: [../../../../../..][../../../../BB/..]
[minion14:16910] MCW rank 10 bound to socket 0[core 5[hwt 0-1]]: [../../../../../BB][../../../../../..]
[minion14:16910] MCW rank 11 bound to socket 1[core 11[hwt 0-1]]: [../../../../../..][../../../../../BB]
[minion14:16910] MCW rank 0 bound to socket 0[core 0[hwt 0-1]]: [BB/../../../../..][../../../../../..]
[minion14:16910] MCW rank 1 bound to socket 1[core 6[hwt 0-1]]: [../../../../../..][BB/../../../../..]
[minion14:16910] MCW rank 2 bound to socket 0[core 1[hwt 0-1]]: [../BB/../../../..][../../../../../..]
[minion14:16910] MCW rank 3 bound to socket 1[core 7[hwt 0-1]]: [../../../../../..][../BB/../../../..]
[minion14:16910] MCW rank 4 bound to socket 0[core 2[hwt 0-1]]: [../../BB/../../..][../../../../../..]
[minion14:16910] MCW rank 5 bound to socket 1[core 8[hwt 0-1]]: [../../../../../..][../../BB/../../..]
[minion14:16910] MCW rank 6 bound to socket 0[core 3[hwt 0-1]]: [../../../BB/../..][../../../../../..]

-------------------------------------------------------------------------
|    ___ _   _ ___                                                      |
|   / __| | | |_  )   Release 7.1.0 "Blackbird"                         |
|   \__ \ |_| |/ /                                                      |
|   |___/\___//___|   Suite (Computational Fluid Dynamics Code)         |
|                                                                       |
-------------------------------------------------------------------------
| SU2 Project Website: https://su2code.github.io                        |
|                                                                       |
| The SU2 Project is maintained by the SU2 Foundation                   |
| (http://su2foundation.org)                                            |
-------------------------------------------------------------------------
| Copyright 2012-2020, SU2 Contributors                                 |
|                                                                       |
| SU2 is free software; you can redistribute it and/or                  |
| modify it under the terms of the GNU Lesser General Public            |
| License as published by the Free Software Foundation; either          |
| version 2.1 of the License, or (at your option) any later version.    |
|                                                                       |
| SU2 is distributed in the hope that it will be useful,                |
| but WITHOUT ANY WARRANTY; without even the implied warranty of        |
| MERCHANTABILITY or FITNESS FOR A PARTICULAR PURPOSE. See the GNU      |
| Lesser General Public License for more details.                       |
|                                                                       |
| You should have received a copy of the GNU Lesser General Public      |
| License along with SU2. If not, see <http://www.gnu.org/licenses/>.   |
-------------------------------------------------------------------------

Parsing config file for zone 0

----------------- Physical Case Definition ( Zone 0 ) -------------------
Compressible Euler equations.
Mach number: 1e-09.
Angle of attack (AoA): 0 deg, and angle of sideslip (AoS): 0 deg.
Reading and writing binary SU2 native restart files.
Read flow solution from: solution_interpolated.dat.
Non-Dimensional simulation (P=1.0, Rho=1.0, T=1.0 at the farfield).
The reference area is 1 m^2.
The semi-span will be computed using the max y(3D) value.
The reference length is 1 m.
Reference origin for moment evaluation is (0, 0, 0).
Surface(s) where the force coefficients are evaluated: 4.

Surface(s) plotted in the output file: 4.
Surface(s) to be analyzed in detail: 4.
Input mesh file name: admesh.INL.su2

--------------- Space Numerical Integration ( Zone 0 ) ------------------
Roe (with entropy fix = 1) solver for the flow inviscid terms.
Standard Roe without low-dissipation function.
Second order integration in space, with slope limiter.
Venkatakrishnan slope-limiting method, with constant: 0.0001. 
The reference element size is: 1. 
Gradient for upwind reconstruction: unweighted Least-Squares.
Gradient for viscous and source terms: Green-Gauss.

--------------- Time Numerical Integration  ( Zone 0 ) ------------------
Local time stepping (steady state simulation).
Euler implicit method for the flow equations.
FGMRES is used for solving the linear system.
Using a ILU(0) preconditioning.
Convergence criteria of the linear solver: 1e-06.
Max number of linear iterations: 20.
CFL adaptation. Factor down: 0.5, factor up: 1.25,
                lower limit: 0.1, upper limit: 10,
                acceptable linear residual: 0.001.
Courant-Friedrichs-Lewy number:        1

------------------ Convergence Criteria  ( Zone 0 ) ---------------------
Maximum number of solver subiterations: 10000.
Begin convergence monitoring at iteration 10.
Residual minimum value: 1e-20.
Cauchy series min. value: 1e-10.
Number of Cauchy elements: 100.
Begin windowed time average at iteration 0.

-------------------- Output Information ( Zone 0 ) ----------------------
Writing solution files every 1000 iterations.
Writing the convergence history file every 1 inner iterations.
Writing the screen convergence history every 50 inner iterations.
The tabular file format is CSV (.csv).
Convergence history file name: history_2nd.
Forces breakdown file name: forces_breakdown.dat.
Surface file name: surface_flow.
Volume file name: flow.
Restart file name: solution.dat.

------------- Config File Boundary Information ( Zone 0 ) ---------------
+-----------------------------------------------------------------------+
|                        Marker Type|                        Marker Name|
+-----------------------------------------------------------------------+
|                         Euler wall|                                  2|
|                                   |                                  3|
+-----------------------------------------------------------------------+
|                          Far-field|                                  4|
+-----------------------------------------------------------------------+
|                     Symmetry plane|                                  6|
+-----------------------------------------------------------------------+
|                   Riemann boundary|                                  1|
|                                   |                                  5|
+-----------------------------------------------------------------------+

-------------------- Output Preprocessing ( Zone 0 ) --------------------
Screen output fields: INNER_ITER, RMS_DENSITY, NONPHYSICAL_POINTS, LINSOL_ITER, LINSOL_RESIDUAL, SURFACE_MACH, SURFACE_STATIC_PRESSURE
History output group(s): ITER, RMS_RES
Convergence field(s): RMS_DENSITY
Warning: No (valid) fields chosen for time convergence monitoring. Time convergence monitoring inactive.
Volume output fields: COORDINATES, SOLUTION, PRIMITIVE

------------------- Geometry Preprocessing ( Zone 0 ) -------------------
Two dimensional problem.
5512 grid points before partitioning.
10564 volume elements before partitioning.
6 surface markers.
19 boundary elements in index 0 (Marker = 1).
51 boundary elements in index 1 (Marker = 2).
61 boundary elements in index 2 (Marker = 3).
90 boundary elements in index 3 (Marker = 4).
17 boundary elements in index 4 (Marker = 5).
141 boundary elements in index 5 (Marker = 6).
Executing the partitioning functions.
Building the graph adjacency structure.
Calling ParMETIS... graph partitioning complete (594 edge cuts).
Distributing ParMETIS coloring.
Rebalancing vertices.
Rebalancing volume element connectivity.
Rebalancing markers and surface elements.
6127 vertices including ghost points. 
11153 interior elements including halo cells. 
11070 triangles.
83 quadrilaterals.
Establishing MPI communication patterns.
Setting point connectivity.
Renumbering points (Reverse Cuthill McKee Ordering).
Recomputing point connectivity.
Setting element connectivity.
Checking the numerical grid orientation.
All volume elements are correctly orientend.
There has been a re-orientation of 395 LINE surface elements.
Identifying edges and vertices.
Setting the control volume structure.
Area of the computational grid: 1147.84.
Searching for the closest normal neighbors to the surfaces.
Storing a mapping from global to local point index.
Compute the surface curvature.
Max K: 26.0332. Mean K: 0.251963. Standard deviation K: 1.97777.
Checking for periodicity.
Computing mesh quality statistics for the dual control volumes.
+--------------------------------------------------------------+
|           Mesh Quality Metric|        Minimum|        Maximum|
+--------------------------------------------------------------+
|    Orthogonality Angle (deg.)|         63.872|             90|
|     CV Face Area Aspect Ratio|        1.00486|        9.57495|
|           CV Sub-Volume Ratio|              1|        7.28461|
+--------------------------------------------------------------+
Finding max control volume width.
Communicating number of neighbors.
Wetted area = 0 m^2.
Area projection in the x-plane = 0 m, y-plane = 0 m.
Max. coordinate in the x-direction = -1e+10 m, y-direction = -1e+10 m.
Min. coordinate in the x-direction = 1e+10 m, y-direction = 1e+10 m.
Checking if Euler & Symmetry markers are straight/plane:
Boundary marker 2 is NOT a single straight.
Boundary marker 3 is a single straight.
Boundary marker 6 is a single straight.
Computing wall distances.

-------------------- Solver Preprocessing ( Zone 0 ) --------------------
Inviscid flow: Computing density based on free-stream
temperature and pressure using the ideal gas law.
Force coefficients computed using free-stream values.

-- Models:
+------------------------------------------------------------------------------+
|          Viscosity Model|        Conductivity Model|              Fluid Model|
+------------------------------------------------------------------------------+
|                        -|                         -|                IDEAL_GAS|
+------------------------------------------------------------------------------+
-- Fluid properties:
+------------------------------------------------------------------------------+
|                  Name|    Dim. value|    Ref. value|      Unit|Non-dim. value|
+------------------------------------------------------------------------------+
|          Gas Constant|           297|           297|  N.m/kg.K|             1|
|      Spec. Heat Ratio|             -|             -|         -|           1.4|
+------------------------------------------------------------------------------+
-- Initial and free-stream conditions:
+------------------------------------------------------------------------------+
|                  Name|    Dim. value|    Ref. value|      Unit|Non-dim. value|
+------------------------------------------------------------------------------+
|       Static Pressure|        100430|        100430|        Pa|             1|
|               Density|       1.12716|       1.12716|    kg/m^3|             1|
|           Temperature|           300|           300|         K|             1|
|          Total Energy|        222750|         89100|   m^2/s^2|           2.5|
|            Velocity-X|   3.53186e-07|       298.496|       m/s|   1.18322e-09|
|            Velocity-Y|             0|       298.496|       m/s|             0|
|    Velocity Magnitude|   3.53186e-07|       298.496|       m/s|   1.18322e-09|
+------------------------------------------------------------------------------+
|           Mach Number|             -|             -|         -|         1e-09|
+------------------------------------------------------------------------------+
Initialize Jacobian structure (Euler). MG level: 0.

------------------- Numerics Preprocessing ( Zone 0 ) -------------------

----------------- Integration Preprocessing ( Zone 0 ) ------------------

------------------- Iteration Preprocessing ( Zone 0 ) ------------------
Euler/Navier-Stokes/RANS fluid iteration.

------------------------------ Begin Solver -----------------------------

Simulation Run using the Single-zone Driver
+------------------------------------------------------------------------------------------+
|  Inner_Iter|    rms[Rho]|Nonphysical_|Linear_Solve|   LinSolRes|    Avg_Mach|   Avg_Press|
+------------------------------------------------------------------------------------------+
|           0|   -0.219101|           0|           6|   -6.709631|  6.9585e-02  6.9585e-02|  9.1895e+04  9.1895e+04|
|          50|   -2.221463|           0|          15|   -6.499793|  3.2465e-02  3.2465e-02|  1.0466e+05  1.0466e+05|
|         100|   -2.216661|           0|          13|   -6.272436|  9.3800e-02  9.3800e-02|  8.8806e+04  8.8806e+04|
|         150|   -2.675077|           0|          13|   -6.095613|  1.5741e-02  1.5741e-02|  9.8268e+04  9.8268e+04|
|         200|   -3.245118|           0|          12|   -6.053381|  1.1900e-02  1.1900e-02|  9.8790e+04  9.8790e+04|
|         250|   -3.333180|           0|          12|   -6.348137|  1.0916e-02  1.0916e-02|  9.8920e+04  9.8920e+04|
|         300|   -3.537597|           0|           8|   -6.710790|  1.0720e-02  1.0720e-02|  9.8946e+04  9.8946e+04|
|         350|   -3.498666|           0|           6|   -6.579765|  1.0670e-02  1.0670e-02|  9.8952e+04  9.8952e+04|
|         400|   -3.937808|           0|           5|   -6.456100|  1.0647e-02  1.0647e-02|  9.8953e+04  9.8953e+04|
|         450|   -3.488228|           0|           9|   -6.568701|  1.0655e-02  1.0655e-02|  9.8956e+04  9.8956e+04|
|         500|   -3.764220|           0|           4|   -6.771498|  1.0634e-02  1.0634e-02|  9.8954e+04  9.8954e+04|
|         550|   -3.950838|           0|           5|   -6.516405|  1.0625e-02  1.0625e-02|  9.8954e+04  9.8954e+04|
|         600|   -3.965746|           0|           4|   -7.606032|  1.0597e-02  1.0597e-02|  9.8955e+04  9.8955e+04|
|         650|   -3.967357|           0|           4|   -8.345975|  1.0579e-02  1.0579e-02|  9.8957e+04  9.8957e+04|
|         700|   -4.107414|           0|           4|   -6.621946|  1.0566e-02  1.0566e-02|  9.8959e+04  9.8959e+04|
|         750|   -4.040074|           0|           4|   -8.301388|  1.0553e-02  1.0553e-02|  9.8961e+04  9.8961e+04|
|         800|   -4.224523|           0|           3|   -6.368316|  1.0543e-02  1.0543e-02|  9.8962e+04  9.8962e+04|
|         850|   -4.149176|           0|           4|   -7.852622|  1.0536e-02  1.0536e-02|  9.8963e+04  9.8963e+04|
|         900|   -4.037741|           0|           3|   -6.524099|  1.0531e-02  1.0531e-02|  9.8964e+04  9.8964e+04|
|         950|   -4.070410|           0|           3|   -6.604048|  1.0527e-02  1.0527e-02|  9.8965e+04  9.8965e+04|
|        1000|   -4.024258|           0|           3|   -6.307710|  1.0525e-02  1.0525e-02|  9.8965e+04  9.8965e+04|
+-----------------------------------------------------------------------+
|        File Writing Summary       |              Filename             |
+-----------------------------------------------------------------------+
|SU2 restart                        |solution.dat                       |
|SU2 ASCII restart                  |solution.csv                       |
|Paraview                           |flow.vtu                           |
|Tecplot ASCII                      |flow.dat                           |
|Paraview surface                   |surface_flow.vtu                   |
+-----------------------------------------------------------------------+
+------------------------------------------------------------------------------------------+
|  Inner_Iter|    rms[Rho]|Nonphysical_|Linear_Solve|   LinSolRes|    Avg_Mach|   Avg_Press|
+------------------------------------------------------------------------------------------+
|        1050|   -4.082844|           0|           4|   -8.251707|  1.0525e-02  1.0525e-02|  9.8965e+04  9.8965e+04|
|        1100|   -4.011713|           0|           3|   -6.025091|  1.0526e-02  1.0526e-02|  9.8965e+04  9.8965e+04|
|        1150|   -4.050253|           0|           4|   -8.294303|  1.0527e-02  1.0527e-02|  9.8965e+04  9.8965e+04|
|        1200|   -4.149628|           0|           3|   -6.529384|  1.0529e-02  1.0529e-02|  9.8965e+04  9.8965e+04|
|        1250|   -4.003367|           0|           3|   -6.639018|  1.0530e-02  1.0530e-02|  9.8965e+04  9.8965e+04|
|        1300|   -4.104982|           0|           3|   -6.775638|  1.0531e-02  1.0531e-02|  9.8965e+04  9.8965e+04|
|        1350|   -4.301792|           0|           3|   -6.236629|  1.0533e-02  1.0533e-02|  9.8964e+04  9.8964e+04|
|        1400|   -4.173528|           0|           3|   -6.301478|  1.0533e-02  1.0533e-02|  9.8964e+04  9.8964e+04|
|        1450|   -4.020364|           0|           3|   -6.799154|  1.0532e-02  1.0532e-02|  9.8965e+04  9.8965e+04|
|        1500|   -4.140514|           0|           3|   -6.256044|  1.0529e-02  1.0529e-02|  9.8965e+04  9.8965e+04|
|        1550|   -4.187738|           0|           3|   -6.646899|  1.0525e-02  1.0525e-02|  9.8965e+04  9.8965e+04|
|        1600|   -4.031761|           0|           3|   -6.020671|  1.0523e-02  1.0523e-02|  9.8966e+04  9.8966e+04|
|        1650|   -4.096734|           0|           3|   -6.728500|  1.0521e-02  1.0521e-02|  9.8966e+04  9.8966e+04|
|        1700|   -4.012187|           0|           4|   -8.477534|  1.0520e-02  1.0520e-02|  9.8966e+04  9.8966e+04|
|        1750|   -3.989710|           0|           3|   -6.554579|  1.0519e-02  1.0519e-02|  9.8966e+04  9.8966e+04|
|        1800|   -4.091342|           0|           3|   -6.850079|  1.0518e-02  1.0518e-02|  9.8967e+04  9.8967e+04|
|        1850|   -4.073843|           0|           4|   -8.378868|  1.0519e-02  1.0519e-02|  9.8967e+04  9.8967e+04|
|        1900|   -4.164624|           0|           3|   -6.596900|  1.0515e-02  1.0515e-02|  9.8967e+04  9.8967e+04|
|        1950|   -4.036835|           0|           4|   -6.199803|  1.0515e-02  1.0515e-02|  9.8967e+04  9.8967e+04|
|        2000|   -4.135837|           0|           4|   -8.358093|  1.0513e-02  1.0513e-02|  9.8968e+04  9.8968e+04|
+-----------------------------------------------------------------------+
|        File Writing Summary       |              Filename             |
+-----------------------------------------------------------------------+
|SU2 restart                        |solution.dat                       |
|SU2 ASCII restart                  |solution.csv                       |
|Paraview                           |flow.vtu                           |
|Tecplot ASCII                      |flow.dat                           |
|Paraview surface                   |surface_flow.vtu                   |
+-----------------------------------------------------------------------+
+------------------------------------------------------------------------------------------+
|  Inner_Iter|    rms[Rho]|Nonphysical_|Linear_Solve|   LinSolRes|    Avg_Mach|   Avg_Press|
+------------------------------------------------------------------------------------------+
|        2050|   -4.218016|           0|           3|   -6.607788|  1.0507e-02  1.0507e-02|  9.8968e+04  9.8968e+04|
|        2100|   -4.079828|           0|           3|   -6.636326|  1.0503e-02  1.0503e-02|  9.8969e+04  9.8969e+04|
|        2150|   -4.117501|           0|           3|   -6.718898|  1.0499e-02  1.0499e-02|  9.8969e+04  9.8969e+04|
|        2200|   -4.012387|           0|           3|   -6.052537|  1.0493e-02  1.0493e-02|  9.8970e+04  9.8970e+04|
|        2250|   -4.320037|           0|           3|   -6.116323|  1.0489e-02  1.0489e-02|  9.8971e+04  9.8971e+04|
|        2300|   -4.174434|           0|           4|   -8.345630|  1.0485e-02  1.0485e-02|  9.8971e+04  9.8971e+04|
|        2350|   -4.376350|           0|           3|   -6.456806|  1.0480e-02  1.0480e-02|  9.8972e+04  9.8972e+04|
|        2400|   -4.164170|           0|           4|   -8.350669|  1.0476e-02  1.0476e-02|  9.8973e+04  9.8973e+04|
|        2450|   -4.211856|           0|           3|   -6.245227|  1.0472e-02  1.0472e-02|  9.8973e+04  9.8973e+04|
|        2500|   -4.066036|           0|           3|   -6.014632|  1.0467e-02  1.0467e-02|  9.8974e+04  9.8974e+04|
|        2550|   -3.950828|           0|           4|   -8.116387|  1.0463e-02  1.0463e-02|  9.8974e+04  9.8974e+04|
|        2600|   -4.119453|           0|           3|   -6.817001|  1.0459e-02  1.0459e-02|  9.8975e+04  9.8975e+04|
|        2650|   -4.393931|           0|           3|   -6.250318|  1.0456e-02  1.0456e-02|  9.8976e+04  9.8976e+04|
|        2700|   -4.283146|           0|           4|   -8.249818|  1.0452e-02  1.0452e-02|  9.8976e+04  9.8976e+04|
|        2750|   -4.187929|           0|           4|   -8.232183|  1.0449e-02  1.0449e-02|  9.8977e+04  9.8977e+04|
|        2800|   -4.284154|           0|           4|   -8.234995|  1.0446e-02  1.0446e-02|  9.8977e+04  9.8977e+04|
|        2850|   -4.293773|           0|           4|   -8.199098|  1.0443e-02  1.0443e-02|  9.8977e+04  9.8977e+04|
|        2900|   -4.111130|           0|           4|   -8.279812|  1.0441e-02  1.0441e-02|  9.8978e+04  9.8978e+04|
|        2950|   -4.174220|           0|           4|   -8.300861|  1.0439e-02  1.0439e-02|  9.8978e+04  9.8978e+04|
|        3000|   -4.374334|           0|           4|   -7.653226|  1.0437e-02  1.0437e-02|  9.8978e+04  9.8978e+04|
+-----------------------------------------------------------------------+
|        File Writing Summary       |              Filename             |
+-----------------------------------------------------------------------+
|SU2 restart                        |solution.dat                       |
|SU2 ASCII restart                  |solution.csv                       |
|Paraview                           |flow.vtu                           |
|Tecplot ASCII                      |flow.dat                           |
|Paraview surface                   |surface_flow.vtu                   |
+-----------------------------------------------------------------------+
+------------------------------------------------------------------------------------------+
|  Inner_Iter|    rms[Rho]|Nonphysical_|Linear_Solve|   LinSolRes|    Avg_Mach|   Avg_Press|
+------------------------------------------------------------------------------------------+
|        3050|   -4.215876|           0|           3|   -6.518047|  1.0435e-02  1.0435e-02|  9.8979e+04  9.8979e+04|
|        3100|   -4.307268|           0|           3|   -6.467255|  1.0433e-02  1.0433e-02|  9.8979e+04  9.8979e+04|
|        3150|   -4.097871|           0|           4|   -8.287905|  1.0430e-02  1.0430e-02|  9.8979e+04  9.8979e+04|
|        3200|   -4.263181|           0|           3|   -6.452517|  1.0428e-02  1.0428e-02|  9.8980e+04  9.8980e+04|
|        3250|   -4.369113|           0|           4|   -7.379720|  1.0425e-02  1.0425e-02|  9.8980e+04  9.8980e+04|
|        3300|   -4.124057|           0|           3|   -6.660674|  1.0421e-02  1.0421e-02|  9.8980e+04  9.8980e+04|
|        3350|   -4.309024|           0|           3|   -6.690321|  1.0418e-02  1.0418e-02|  9.8981e+04  9.8981e+04|
|        3400|   -4.216982|           0|           4|   -7.578283|  1.0415e-02  1.0415e-02|  9.8981e+04  9.8981e+04|
|        3450|   -4.308107|           0|           3|   -6.711661|  1.0412e-02  1.0412e-02|  9.8982e+04  9.8982e+04|
|        3500|   -4.098274|           0|           3|   -6.773805|  1.0410e-02  1.0410e-02|  9.8982e+04  9.8982e+04|
|        3550|   -4.133706|           0|           3|   -6.666120|  1.0408e-02  1.0408e-02|  9.8982e+04  9.8982e+04|
|        3600|   -4.248769|           0|           3|   -6.638800|  1.0406e-02  1.0406e-02|  9.8983e+04  9.8983e+04|
|        3650|   -4.259459|           0|           4|   -7.871308|  1.0405e-02  1.0405e-02|  9.8983e+04  9.8983e+04|
|        3700|   -4.123244|           0|           3|   -6.598192|  1.0404e-02  1.0404e-02|  9.8983e+04  9.8983e+04|
|        3750|   -4.365583|           0|           3|   -6.250594|  1.0404e-02  1.0404e-02|  9.8983e+04  9.8983e+04|
|        3800|   -4.311851|           0|           4|   -7.931074|  1.0403e-02  1.0403e-02|  9.8983e+04  9.8983e+04|
|        3850|   -4.078303|           0|           3|   -6.734431|  1.0402e-02  1.0402e-02|  9.8983e+04  9.8983e+04|
|        3900|   -4.090767|           0|           4|   -8.275696|  1.0401e-02  1.0401e-02|  9.8983e+04  9.8983e+04|
|        3950|   -4.184312|           0|           3|   -6.525039|  1.0400e-02  1.0400e-02|  9.8983e+04  9.8983e+04|
|        4000|   -4.116355|           0|           3|   -6.444031|  1.0399e-02  1.0399e-02|  9.8984e+04  9.8984e+04|
+-----------------------------------------------------------------------+
|        File Writing Summary       |              Filename             |
+-----------------------------------------------------------------------+
|SU2 restart                        |solution.dat                       |
|SU2 ASCII restart                  |solution.csv                       |
|Paraview                           |flow.vtu                           |
|Tecplot ASCII                      |flow.dat                           |
|Paraview surface                   |surface_flow.vtu                   |
+-----------------------------------------------------------------------+
+------------------------------------------------------------------------------------------+
|  Inner_Iter|    rms[Rho]|Nonphysical_|Linear_Solve|   LinSolRes|    Avg_Mach|   Avg_Press|
+------------------------------------------------------------------------------------------+
|        4050|   -4.161211|           0|           4|   -8.305749|  1.0398e-02  1.0398e-02|  9.8984e+04  9.8984e+04|
|        4100|   -4.074361|           0|           3|   -6.670728|  1.0396e-02  1.0396e-02|  9.8984e+04  9.8984e+04|
|        4150|   -4.006178|           0|           3|   -6.082940|  1.0394e-02  1.0394e-02|  9.8984e+04  9.8984e+04|
|        4200|   -4.252700|           0|           4|   -7.136801|  1.0392e-02  1.0392e-02|  9.8985e+04  9.8985e+04|
|        4250|   -4.171089|           0|           4|   -8.302519|  1.0390e-02  1.0390e-02|  9.8985e+04  9.8985e+04|
|        4300|   -4.084058|           0|           3|   -6.647942|  1.0388e-02  1.0388e-02|  9.8985e+04  9.8985e+04|
|        4350|   -4.300250|           0|           4|   -7.377168|  1.0386e-02  1.0386e-02|  9.8985e+04  9.8985e+04|
|        4400|   -4.014125|           0|           4|   -8.415351|  1.0385e-02  1.0385e-02|  9.8986e+04  9.8986e+04|
|        4450|   -4.022887|           0|           3|   -6.722747|  1.0382e-02  1.0382e-02|  9.8986e+04  9.8986e+04|
|        4500|   -4.245457|           0|           4|   -8.203035|  1.0379e-02  1.0379e-02|  9.8986e+04  9.8986e+04|
|        4550|   -4.325587|           0|           4|   -7.591078|  1.0376e-02  1.0376e-02|  9.8987e+04  9.8987e+04|
|        4600|   -4.345475|           0|           3|   -6.131383|  1.0371e-02  1.0371e-02|  9.8988e+04  9.8988e+04|
|        4650|   -4.335910|           0|           3|   -6.420046|  1.0366e-02  1.0366e-02|  9.8988e+04  9.8988e+04|
|        4700|   -4.052279|           0|           3|   -6.653868|  1.0361e-02  1.0361e-02|  9.8989e+04  9.8989e+04|
|        4750|   -4.098415|           0|           3|   -6.606920|  1.0356e-02  1.0356e-02|  9.8990e+04  9.8990e+04|
|        4800|   -4.050323|           0|           4|   -7.242833|  1.0350e-02  1.0350e-02|  9.8991e+04  9.8991e+04|
|        4850|   -4.193941|           0|           3|   -6.143008|  1.0346e-02  1.0346e-02|  9.8991e+04  9.8991e+04|
|        4900|   -4.263077|           0|           3|   -6.511564|  1.0342e-02  1.0342e-02|  9.8992e+04  9.8992e+04|
|        4950|   -4.192029|           0|           3|   -6.628931|  1.0338e-02  1.0338e-02|  9.8992e+04  9.8992e+04|
|        5000|   -4.056159|           0|           4|   -8.294614|  1.0334e-02  1.0334e-02|  9.8993e+04  9.8993e+04|
+-----------------------------------------------------------------------+
|        File Writing Summary       |              Filename             |
+-----------------------------------------------------------------------+
|SU2 restart                        |solution.dat                       |
|SU2 ASCII restart                  |solution.csv                       |
|Paraview                           |flow.vtu                           |
|Tecplot ASCII                      |flow.dat                           |
|Paraview surface                   |surface_flow.vtu                   |
+-----------------------------------------------------------------------+
+------------------------------------------------------------------------------------------+
|  Inner_Iter|    rms[Rho]|Nonphysical_|Linear_Solve|   LinSolRes|    Avg_Mach|   Avg_Press|
+------------------------------------------------------------------------------------------+
|        5050|   -4.218057|           0|           3|   -6.507820|  1.0331e-02  1.0331e-02|  9.8993e+04  9.8993e+04|
|        5100|   -4.089488|           0|           4|   -8.272072|  1.0328e-02  1.0328e-02|  9.8994e+04  9.8994e+04|
|        5150|   -4.055069|           0|           3|   -6.661656|  1.0325e-02  1.0325e-02|  9.8994e+04  9.8994e+04|
|        5200|   -4.033760|           0|           3|   -6.794360|  1.0323e-02  1.0323e-02|  9.8995e+04  9.8995e+04|
|        5250|   -4.224289|           0|           4|   -8.199963|  1.0321e-02  1.0321e-02|  9.8995e+04  9.8995e+04|
[...]
|        File Writing Summary       |              Filename             |
+-----------------------------------------------------------------------+
|SU2 restart                        |solution.dat                       |
|SU2 ASCII restart                  |solution.csv                       |
|Paraview                           |flow.vtu                           |
|Tecplot ASCII                      |flow.dat                           |
|Paraview surface                   |surface_flow.vtu                   |
+-----------------------------------------------------------------------+
+------------------------------------------------------------------------------------------+
|  Inner_Iter|    rms[Rho]|Nonphysical_|Linear_Solve|   LinSolRes|    Avg_Mach|   Avg_Press|
+------------------------------------------------------------------------------------------+
|        5050|   -3.462647|           0|           6|   -6.300468|  1.1483e-02  1.1483e-02|  9.8846e+04  9.8846e+04|
|        5100|   -3.504859|           0|           8|   -6.201624|  1.1698e-02  1.1698e-02|  9.8812e+04  9.8812e+04|
|        5150|   -3.372035|           0|          13|   -6.144935|  1.0144e-02  1.0144e-02|  9.9030e+04  9.9030e+04|
|        5200|   -3.650166|           0|           5|   -6.529423|  9.9377e-03  9.9377e-03|  9.9049e+04  9.9049e+04|
|        5250|   -3.505825|           0|          11|   -6.503764|  1.3672e-02  1.3672e-02|  9.8540e+04  9.8540e+04|
|        5300|   -3.459860|           0|           3|   -6.367696|  1.1985e-02  1.1985e-02|  9.8774e+04  9.8774e+04|
|        5350|   -3.646414|           0|           3|   -6.241106|  1.1687e-02  1.1687e-02|  9.8813e+04  9.8813e+04|
|        5400|   -3.489697|           0|          14|   -6.307737|  1.1479e-02  1.1479e-02|  9.8846e+04  9.8846e+04|
|        5450|   -3.538637|           0|          14|   -6.196549|  1.0188e-02  1.0188e-02|  9.9022e+04  9.9022e+04|
|        5500|   -3.558767|           0|          14|   -6.427104|  1.2058e-02  1.2058e-02|  9.8769e+04  9.8769e+04|
|        5550|   -3.669810|           0|           5|   -7.004751|  1.1852e-02  1.1852e-02|  9.8786e+04  9.8786e+04|
|        5600|   -3.595118|           0|           4|   -7.850156|  1.0822e-02  1.0822e-02|  9.8928e+04  9.8928e+04|
|        5650|   -3.608694|           0|           4|   -7.472452|  1.1929e-02  1.1929e-02|  9.8782e+04  9.8782e+04|
|        5700|   -3.501588|           0|          14|   -6.333829|  1.1574e-02  1.1574e-02|  9.8837e+04  9.8837e+04|
|        5750|   -3.511554|           0|          14|   -6.400102|  1.1552e-02  1.1552e-02|  9.8837e+04  9.8837e+04|
|        5800|   -3.502834|           0|          12|   -6.418649|  1.1361e-02  1.1361e-02|  9.8861e+04  9.8861e+04|
|        5850|   -3.363002|           0|          13|   -6.136525|  8.5295e-03  8.5295e-03|  9.9254e+04  9.9254e+04|
|        5900|   -3.621570|           0|           4|   -7.792766|  1.0718e-02  1.0718e-02|  9.8946e+04  9.8946e+04|
|        5950|   -3.410655|           0|          14|   -6.364926|  1.1927e-02  1.1927e-02|  9.8776e+04  9.8776e+04|
|        6000|   -3.488602|           0|           3|   -6.361504|  8.6711e-03  8.6711e-03|  9.9224e+04  9.9224e+04|
+-----------------------------------------------------------------------+
|        File Writing Summary       |              Filename             |
+-----------------------------------------------------------------------+
|SU2 restart                        |solution.dat                       |
|SU2 ASCII restart                  |solution.csv                       |
|Paraview                           |flow.vtu                           |
|Tecplot ASCII                      |flow.dat                           |
|Paraview surface                   |surface_flow.vtu                   |
+-----------------------------------------------------------------------+
+------------------------------------------------------------------------------------------+
|  Inner_Iter|    rms[Rho]|Nonphysical_|Linear_Solve|   LinSolRes|    Avg_Mach|   Avg_Press|
+------------------------------------------------------------------------------------------+
|        6050|   -3.494058|           0|           5|   -6.679065|  8.4187e-03  8.4187e-03|  9.9254e+04  9.9254e+04|
|        6100|   -3.530034|           0|          14|   -6.325783|  1.0890e-02  1.0890e-02|  9.8931e+04  9.8931e+04|
|        6150|   -3.581488|           0|           3|   -6.153873|  9.6572e-03  9.6572e-03|  9.9091e+04  9.9091e+04|
|        6200|   -3.569640|           0|           8|   -6.474241|  1.1886e-02  1.1886e-02|  9.8789e+04  9.8789e+04|
|        6250|   -3.569197|           0|          14|   -6.436526|  9.7922e-03  9.7922e-03|  9.9075e+04  9.9075e+04|
|        6300|   -3.588794|           0|          13|   -6.328071|  1.1745e-02  1.1745e-02|  9.8805e+04  9.8805e+04|
|        6350|   -3.491522|           0|          14|   -6.414170|  1.0035e-02  1.0035e-02|  9.9042e+04  9.9042e+04|
|        6400|   -3.509345|           0|           3|   -6.277102|  1.1412e-02  1.1412e-02|  9.8849e+04  9.8849e+04|
|        6450|   -3.529329|           0|           3|   -6.284591|  1.1261e-02  1.1261e-02|  9.8865e+04  9.8865e+04|
|        6500|   -3.482967|           0|          14|   -6.399637|  1.2296e-02  1.2296e-02|  9.8733e+04  9.8733e+04|
|        6550|   -3.457540|           0|           3|   -6.353119|  1.1941e-02  1.1941e-02|  9.8774e+04  9.8774e+04|
|        6600|   -3.407372|           0|          14|   -6.325873|  1.2666e-02  1.2666e-02|  9.8689e+04  9.8689e+04|
|        6650|   -3.344938|           0|          13|   -6.196384|  1.0353e-02  1.0353e-02|  9.9001e+04  9.9001e+04|
|        6700|   -3.480733|           0|          14|   -6.403025|  1.2821e-02  1.2821e-02|  9.8658e+04  9.8658e+04|
|        6750|   -3.532377|           0|          14|   -6.397493|  8.3010e-03  8.3010e-03|  9.9281e+04  9.9281e+04|
|        6800|   -3.609065|           0|           5|   -6.968580|  1.0742e-02  1.0742e-02|  9.8939e+04  9.8939e+04|
|        6850|   -3.553868|           0|           8|   -6.572813|  1.0414e-02  1.0414e-02|  9.8988e+04  9.8988e+04|
|        6900|   -3.447089|           0|          14|   -6.419277|  1.1297e-02  1.1297e-02|  9.8865e+04  9.8865e+04|
|        6950|   -3.523722|           0|          14|   -6.356509|  1.1640e-02  1.1640e-02|  9.8827e+04  9.8827e+04|
|        7000|   -3.587587|           0|          14|   -6.404098|  9.6106e-03  9.6106e-03|  9.9099e+04  9.9099e+04|
+-----------------------------------------------------------------------+
|        File Writing Summary       |              Filename             |
+-----------------------------------------------------------------------+
|SU2 restart                        |solution.dat                       |
|SU2 ASCII restart                  |solution.csv                       |
|Paraview                           |flow.vtu                           |
|Tecplot ASCII                      |flow.dat                           |
|Paraview surface                   |surface_flow.vtu                   |
+-----------------------------------------------------------------------+
+------------------------------------------------------------------------------------------+
|  Inner_Iter|    rms[Rho]|Nonphysical_|Linear_Solve|   LinSolRes|    Avg_Mach|   Avg_Press|
+------------------------------------------------------------------------------------------+
|        7050|   -3.637165|           0|           4|   -7.561585|  1.1955e-02  1.1955e-02|  9.8769e+04  9.8769e+04|
|        7100|   -3.646550|           0|           3|   -6.322192|  1.2007e-02  1.2007e-02|  9.8761e+04  9.8761e+04|
|        7150|   -3.646065|           0|           3|   -6.312816|  1.2017e-02  1.2017e-02|  9.8760e+04  9.8760e+04|
|        7200|   -3.644240|           0|           3|   -6.305686|  1.2024e-02  1.2024e-02|  9.8759e+04  9.8759e+04|
|        7250|   -3.641726|           0|           3|   -6.301780|  1.2024e-02  1.2024e-02|  9.8759e+04  9.8759e+04|
|        7300|   -3.639204|           0|           3|   -6.301463|  1.2013e-02  1.2013e-02|  9.8761e+04  9.8761e+04|
|        7350|   -3.636744|           0|           3|   -6.296645|  1.1994e-02  1.1994e-02|  9.8763e+04  9.8763e+04|
|        7400|   -3.634450|           0|           3|   -6.289381|  1.1972e-02  1.1972e-02|  9.8766e+04  9.8766e+04|
|        7450|   -3.632633|           0|           3|   -6.278159|  1.1945e-02  1.1945e-02|  9.8769e+04  9.8769e+04|
|        7500|   -3.631781|           0|           3|   -6.276688|  1.1911e-02  1.1911e-02|  9.8774e+04  9.8774e+04|
|        7550|   -3.632046|           0|           3|   -6.280073|  1.1879e-02  1.1879e-02|  9.8780e+04  9.8780e+04|
|        7600|   -3.632686|           0|           3|   -6.281300|  1.1840e-02  1.1840e-02|  9.8786e+04  9.8786e+04|
|        7650|   -3.633686|           0|           3|   -6.285502|  1.1794e-02  1.1794e-02|  9.8792e+04  9.8792e+04|
|        7700|   -3.634804|           0|           3|   -6.290522|  1.1749e-02  1.1749e-02|  9.8797e+04  9.8797e+04|
|        7750|   -3.635774|           0|           3|   -6.292286|  1.1706e-02  1.1706e-02|  9.8803e+04  9.8803e+04|
|        7800|   -3.635738|           0|           3|   -6.294041|  1.1670e-02  1.1670e-02|  9.8808e+04  9.8808e+04|
|        7850|   -3.635189|           0|           3|   -6.290069|  1.1633e-02  1.1633e-02|  9.8812e+04  9.8812e+04|
|        7900|   -3.634476|           0|           3|   -6.291661|  1.1598e-02  1.1598e-02|  9.8817e+04  9.8817e+04|
|        7950|   -3.633122|           0|           3|   -6.292805|  1.1564e-02  1.1564e-02|  9.8821e+04  9.8821e+04|
|        8000|   -3.616393|           0|           8|   -6.663522|  1.1493e-02  1.1493e-02|  9.8834e+04  9.8834e+04|
+-----------------------------------------------------------------------+
|        File Writing Summary       |              Filename             |
+-----------------------------------------------------------------------+
|SU2 restart                        |solution.dat                       |
|SU2 ASCII restart                  |solution.csv                       |
|Paraview                           |flow.vtu                           |
|Tecplot ASCII                      |flow.dat                           |
|Paraview surface                   |surface_flow.vtu                   |
+-----------------------------------------------------------------------+
+------------------------------------------------------------------------------------------+
|  Inner_Iter|    rms[Rho]|Nonphysical_|Linear_Solve|   LinSolRes|    Avg_Mach|   Avg_Press|
+------------------------------------------------------------------------------------------+
|        8050|   -3.381924|           0|          14|   -6.378082|  1.1783e-02  1.1783e-02|  9.8808e+04  9.8808e+04|
|        8100|   -3.385974|           0|          13|   -6.041032|  1.0421e-02  1.0421e-02|  9.8991e+04  9.8991e+04|
|        8150|   -3.520965|           0|          12|   -6.177063|  1.1010e-02  1.1010e-02|  9.8912e+04  9.8912e+04|
|        8200|   -3.485711|           0|           6|   -6.478545|  1.3085e-02  1.3085e-02|  9.8624e+04  9.8624e+04|
|        8250|   -3.320917|           0|          13|   -6.221675|  8.5758e-03  8.5758e-03|  9.9248e+04  9.9248e+04|
|        8300|   -3.513718|           0|          14|   -6.340496|  1.1373e-02  1.1373e-02|  9.8857e+04  9.8857e+04|
|        8350|   -3.551693|           0|           9|   -6.380096|  9.7513e-03  9.7513e-03|  9.9078e+04  9.9078e+04|
|        8400|   -3.673984|           0|          10|   -6.607265|  1.0992e-02  1.0992e-02|  9.8908e+04  9.8908e+04|
|        8450|   -3.674347|           0|           3|   -6.283854|  1.1569e-02  1.1569e-02|  9.8823e+04  9.8823e+04|
|        8500|   -3.652848|           0|           3|   -6.315598|  1.2119e-02  1.2119e-02|  9.8749e+04  9.8749e+04|
|        8550|   -3.650105|           0|           3|   -6.323320|  1.2241e-02  1.2241e-02|  9.8730e+04  9.8730e+04|
|        8600|   -3.646130|           0|           3|   -6.324567|  1.2362e-02  1.2362e-02|  9.8713e+04  9.8713e+04|
|        8650|   -3.640279|           0|           3|   -6.323754|  1.2470e-02  1.2470e-02|  9.8699e+04  9.8699e+04|
|        8700|   -3.634951|           0|           3|   -6.321197|  1.2563e-02  1.2563e-02|  9.8686e+04  9.8686e+04|
|        8750|   -3.630306|           0|           3|   -6.320923|  1.2638e-02  1.2638e-02|  9.8676e+04  9.8676e+04|
|        8800|   -3.626573|           0|           3|   -6.320463|  1.2692e-02  1.2692e-02|  9.8669e+04  9.8669e+04|
|        8850|   -3.624338|           0|           3|   -6.320504|  1.2726e-02  1.2726e-02|  9.8665e+04  9.8665e+04|
|        8900|   -3.624808|           0|           3|   -6.319850|  1.2741e-02  1.2741e-02|  9.8662e+04  9.8662e+04|
|        8950|   -3.626028|           0|           3|   -6.315677|  1.2743e-02  1.2743e-02|  9.8662e+04  9.8662e+04|
|        9000|   -3.627292|           0|           3|   -6.309240|  1.2728e-02  1.2728e-02|  9.8664e+04  9.8664e+04|
+-----------------------------------------------------------------------+
|        File Writing Summary       |              Filename             |
+-----------------------------------------------------------------------+
|SU2 restart                        |solution.dat                       |
|SU2 ASCII restart                  |solution.csv                       |
|Paraview                           |flow.vtu                           |
|Tecplot ASCII                      |flow.dat                           |
|Paraview surface                   |surface_flow.vtu                   |
+-----------------------------------------------------------------------+
+------------------------------------------------------------------------------------------+
|  Inner_Iter|    rms[Rho]|Nonphysical_|Linear_Solve|   LinSolRes|    Avg_Mach|   Avg_Press|
+------------------------------------------------------------------------------------------+
|        9050|   -3.629398|           0|           3|   -6.299596|  1.2692e-02  1.2692e-02|  9.8669e+04  9.8669e+04|
|        9100|   -3.631646|           0|           3|   -6.288009|  1.2635e-02  1.2635e-02|  9.8676e+04  9.8676e+04|
|        9150|   -3.634397|           0|           3|   -6.280286|  1.2560e-02  1.2560e-02|  9.8686e+04  9.8686e+04|
|        9200|   -3.636147|           0|           3|   -6.272714|  1.2476e-02  1.2476e-02|  9.8698e+04  9.8698e+04|
|        9250|   -3.637123|           0|           3|   -6.267624|  1.2389e-02  1.2389e-02|  9.8710e+04  9.8710e+04|
|        9300|   -3.637016|           0|           3|   -6.265653|  1.2301e-02  1.2301e-02|  9.8722e+04  9.8722e+04|
|        9350|   -3.636509|           0|           3|   -6.265545|  1.2214e-02  1.2214e-02|  9.8734e+04  9.8734e+04|
|        9400|   -3.635434|           0|           3|   -6.259248|  1.2125e-02  1.2125e-02|  9.8747e+04  9.8747e+04|
|        9450|   -3.633658|           0|           3|   -6.255560|  1.2039e-02  1.2039e-02|  9.8760e+04  9.8760e+04|
|        9500|   -3.631142|           0|           3|   -6.250072|  1.1939e-02  1.1939e-02|  9.8773e+04  9.8773e+04|
|        9550|   -3.627584|           0|           3|   -6.249937|  1.1845e-02  1.1845e-02|  9.8785e+04  9.8785e+04|
|        9600|   -3.622885|           0|           3|   -6.253805|  1.1763e-02  1.1763e-02|  9.8797e+04  9.8797e+04|
|        9650|   -3.617997|           0|           3|   -6.264807|  1.1687e-02  1.1687e-02|  9.8807e+04  9.8807e+04|
|        9700|   -3.613558|           0|           3|   -6.276943|  1.1620e-02  1.1620e-02|  9.8816e+04  9.8816e+04|
|        9750|   -3.609906|           0|           3|   -6.288148|  1.1563e-02  1.1563e-02|  9.8825e+04  9.8825e+04|
|        9800|   -3.606614|           0|           3|   -6.295208|  1.1513e-02  1.1513e-02|  9.8831e+04  9.8831e+04|
|        9850|   -3.602715|           0|           3|   -6.304136|  1.1475e-02  1.1475e-02|  9.8837e+04  9.8837e+04|
|        9900|   -3.598669|           0|           3|   -6.309604|  1.1449e-02  1.1449e-02|  9.8841e+04  9.8841e+04|
|        9950|   -3.530954|           0|          14|   -6.205106|  1.0355e-02  1.0355e-02|  9.8997e+04  9.8997e+04|
|        9999|   -3.458841|           0|          14|   -6.409725|  8.4333e-03  8.4333e-03|  9.9263e+04  9.9263e+04|

----------------------------- Solver Exit -------------------------------

Maximum number of iterations reached (ITER = 10000) before convergence.
+-----------------------------------------------------------------------+
|      Convergence Field     |     Value    |   Criterion  |  Converged |
+-----------------------------------------------------------------------+
|                    rms[Rho]|      -3.45884|         < -20|          No|
+-----------------------------------------------------------------------+
-------------------------------------------------------------------------
+-----------------------------------------------------------------------+
|        File Writing Summary       |              Filename             |
+-----------------------------------------------------------------------+
|SU2 restart                        |solution.dat                       |
|SU2 ASCII restart                  |solution.csv                       |
|Paraview                           |flow.vtu                           |
|Tecplot ASCII                      |flow.dat                           |
|Paraview surface                   |surface_flow.vtu                   |
+-----------------------------------------------------------------------+

------------------------- Solver Postprocessing -------------------------
Deleted CNumerics container.
Deleted CIntegration container.
Deleted CSolver container.
Deleted CIteration container.
Deleted CInterface container.
Deleted CGeometry container.
Deleted CFreeFormDefBox class.
Deleted CSurfaceMovement class.
Deleted CVolumetricMovement class.
Deleted CConfig container.
Deleted nInst container.
Deleted COutput class.
-------------------------------------------------------------------------

------------------------- Exit Success (SU2_CFD) ------------------------



=======================================================================
=======================================================================
                       PREPROCESSING - LEVEL 8
 
  -------------------------------------------------------------------
    NODE-PAIR CODE   -   PREPROCESSING PHASE
  -------------------------------------------------------------------
    Department of Aerospace Engineering - Politecnico di Milano
    authors: Alberto Guardone, Marco Fossati
 
    Warning: Check the status of file CORNERS.grid_name
 
 
    Domain nodes:        79352
    Boundary nodes:         1018
    Domain elements:       158045
    Boundary elements:          509
 
    Generating node-pairs...
forrtl: severe (174): SIGSEGV, segmentation fault occurred
Image              PC                Routine            Line        Source             
prepro             000000000057470D  Unknown               Unknown  Unknown
prepro             00000000005725A7  Unknown               Unknown  Unknown
prepro             000000000052C1F4  Unknown               Unknown  Unknown
prepro             000000000052C006  Unknown               Unknown  Unknown
prepro             00000000004E87B6  Unknown               Unknown  Unknown
prepro             00000000004EE1D0  Unknown               Unknown  Unknown
Unknown            00007F90E05B48D0  Unknown               Unknown  Unknown
prepro             000000000042BA01  Unknown               Unknown  Unknown
prepro             00000000004094DA  Unknown               Unknown  Unknown
prepro             0000000000408DEE  Unknown               Unknown  Unknown
libc.so.6          00007F90DF5ACB45  Unknown               Unknown  Unknown
prepro             0000000000408CE9  Unknown               Unknown  Unknown
