

=======================================================================
=======================================================================
                       SU2 - INITIAL SOLUTION



MPI - REPORT BINDINGS:
[minion02:26977] MCW rank 1 bound to socket 1[core 6[hwt 0-1]]: [../../../../../..][BB/../../../../..]
[minion02:26977] MCW rank 2 bound to socket 0[core 1[hwt 0-1]]: [../BB/../../../..][../../../../../..]
[minion02:26977] MCW rank 3 bound to socket 1[core 7[hwt 0-1]]: [../../../../../..][../BB/../../../..]
[minion02:26977] MCW rank 4 bound to socket 0[core 2[hwt 0-1]]: [../../BB/../../..][../../../../../..]
[minion02:26977] MCW rank 5 bound to socket 1[core 8[hwt 0-1]]: [../../../../../..][../../BB/../../..]
[minion02:26977] MCW rank 6 bound to socket 0[core 3[hwt 0-1]]: [../../../BB/../..][../../../../../..]
[minion02:26977] MCW rank 7 bound to socket 1[core 9[hwt 0-1]]: [../../../../../..][../../../BB/../..]
[minion02:26977] MCW rank 8 bound to socket 0[core 4[hwt 0-1]]: [../../../../BB/..][../../../../../..]
[minion02:26977] MCW rank 9 bound to socket 1[core 10[hwt 0-1]]: [../../../../../..][../../../../BB/..]
[minion02:26977] MCW rank 10 bound to socket 0[core 5[hwt 0-1]]: [../../../../../BB][../../../../../..]
[minion02:26977] MCW rank 11 bound to socket 1[core 11[hwt 0-1]]: [../../../../../..][../../../../../BB]
[minion02:26977] MCW rank 0 bound to socket 0[core 0[hwt 0-1]]: [BB/../../../../..][../../../../../..]

-------------------------------------------------------------------------
|    ___ _   _ ___                                                      |
|   / __| | | |_  )   Release 7.1.0 "Blackbird"                         |
|   \__ \ |_| |/ /                                                      |
|   |___/\___//___|   Suite (Computational Fluid Dynamics Code)         |
|                                                                       |
-------------------------------------------------------------------------
| SU2 Project Website: https://su2code.github.io                        |
|                                                                       |
| The SU2 Project is maintained by the SU2 Foundation                   |
| (http://su2foundation.org)                                            |
-------------------------------------------------------------------------
| Copyright 2012-2020, SU2 Contributors                                 |
|                                                                       |
| SU2 is free software; you can redistribute it and/or                  |
| modify it under the terms of the GNU Lesser General Public            |
| License as published by the Free Software Foundation; either          |
| version 2.1 of the License, or (at your option) any later version.    |
|                                                                       |
| SU2 is distributed in the hope that it will be useful,                |
| but WITHOUT ANY WARRANTY; without even the implied warranty of        |
| MERCHANTABILITY or FITNESS FOR A PARTICULAR PURPOSE. See the GNU      |
| Lesser General Public License for more details.                       |
|                                                                       |
| You should have received a copy of the GNU Lesser General Public      |
| License along with SU2. If not, see <http://www.gnu.org/licenses/>.   |
-------------------------------------------------------------------------

Parsing config file for zone 0

----------------- Physical Case Definition ( Zone 0 ) -------------------
Compressible Euler equations.
Mach number: 1e-09.
Angle of attack (AoA): 0 deg, and angle of sideslip (AoS): 0 deg.
No restart solution, use the values at infinity (freestream).
Dimensional simulation.
The reference area is 1 m^2.
The semi-span will be computed using the max y(3D) value.
The reference length is 1 m.
Input mesh file name: admesh.INL.su2

--------------- Space Numerical Integration ( Zone 0 ) ------------------
Roe (with entropy fix = 0.1) solver for the flow inviscid terms.
Standard Roe without low-dissipation function.
First order integration in space.
Gradient for upwind reconstruction: unweighted Least-Squares.
Gradient for viscous and source terms: Green-Gauss.

--------------- Time Numerical Integration  ( Zone 0 ) ------------------
Local time stepping (steady state simulation).
Euler implicit method for the flow equations.
FGMRES is used for solving the linear system.
Using a ILU(0) preconditioning.
Convergence criteria of the linear solver: 1e-06.
Max number of linear iterations: 10.
CFL adaptation. Factor down: 0.1, factor up: 2,
                lower limit: 10, upper limit: 1000,
                acceptable linear residual: 0.001.
Courant-Friedrichs-Lewy number:       10

------------------ Convergence Criteria  ( Zone 0 ) ---------------------
Maximum number of solver subiterations: 2000.
Begin convergence monitoring at iteration 10.
Residual minimum value: 1e-13.
Cauchy series min. value: 1e-10.
Number of Cauchy elements: 100.
Begin windowed time average at iteration 0.

-------------------- Output Information ( Zone 0 ) ----------------------
Writing solution files every 100 iterations.
Writing the convergence history file every 1 inner iterations.
Writing the screen convergence history every 1 inner iterations.
The tabular file format is CSV (.csv).
Convergence history file name: history_2nd.
Forces breakdown file name: forces_breakdown.dat.
Surface file name: surface_flow.
Volume file name: flow.
Restart file name: solution.dat.

------------- Config File Boundary Information ( Zone 0 ) ---------------
+-----------------------------------------------------------------------+
|                        Marker Type|                        Marker Name|
+-----------------------------------------------------------------------+
|                         Euler wall|                                  2|
|                                   |                                  3|
+-----------------------------------------------------------------------+
|                     Symmetry plane|                                  6|
+-----------------------------------------------------------------------+
|                   Riemann boundary|                                  1|
|                                   |                                  4|
|                                   |                                  5|
+-----------------------------------------------------------------------+

-------------------- Output Preprocessing ( Zone 0 ) --------------------
Screen output fields: INNER_ITER, RMS_DENSITY, TOTAL_HEATFLUX
History output group(s): ITER, RMS_RES
Convergence field(s): RMS_DENSITY
Warning: No (valid) fields chosen for time convergence monitoring. Time convergence monitoring inactive.
Volume output fields: COORDINATES, SOLUTION, PRIMITIVE

------------------- Geometry Preprocessing ( Zone 0 ) -------------------
Two dimensional problem.
15553 grid points before partitioning.
30365 volume elements before partitioning.
6 surface markers.
30 boundary elements in index 0 (Marker = 1).
55 boundary elements in index 1 (Marker = 2).
78 boundary elements in index 2 (Marker = 3).
129 boundary elements in index 3 (Marker = 4).
33 boundary elements in index 4 (Marker = 5).
336 boundary elements in index 5 (Marker = 6).
Executing the partitioning functions.
Building the graph adjacency structure.
Calling ParMETIS... graph partitioning complete (1154 edge cuts).
Distributing ParMETIS coloring.
Rebalancing vertices.
Rebalancing volume element connectivity.
Rebalancing markers and surface elements.
16729 vertices including ghost points. 
31518 interior elements including halo cells. 
31439 triangles.
79 quadrilaterals.
Establishing MPI communication patterns.
Setting point connectivity.
Renumbering points (Reverse Cuthill McKee Ordering).
Recomputing point connectivity.
Setting element connectivity.
Checking the numerical grid orientation.
All volume elements are correctly orientend.
There has been a re-orientation of 673 LINE surface elements.
Identifying edges and vertices.
Setting the control volume structure.
Area of the computational grid: 1126.6.
Searching for the closest normal neighbors to the surfaces.
Storing a mapping from global to local point index.
Compute the surface curvature.
Max K: 13.202. Mean K: 0.14277. Standard deviation K: 1.05215.
Checking for periodicity.
Computing mesh quality statistics for the dual control volumes.
+--------------------------------------------------------------+
|           Mesh Quality Metric|        Minimum|        Maximum|
+--------------------------------------------------------------+
|    Orthogonality Angle (deg.)|        50.8138|             90|
|     CV Face Area Aspect Ratio|        1.00006|        7.54283|
|           CV Sub-Volume Ratio|              1|        16.0858|
+--------------------------------------------------------------+
Finding max control volume width.
Communicating number of neighbors.
Wetted area = 0 m.
Area projection in the x-plane = 0 m, y-plane = 0 m.
Max. coordinate in the x-direction = -1e+10 m, y-direction = -1e+10 m.
Min. coordinate in the x-direction = 1e+10 m, y-direction = 1e+10 m.
Checking if Euler & Symmetry markers are straight/plane:
Boundary marker 2 is NOT a single straight.
Boundary marker 3 is a single straight.
Boundary marker 6 is a single straight.
Computing wall distances.

-------------------- Solver Preprocessing ( Zone 0 ) --------------------
Inviscid flow: Computing density based on free-stream
temperature and pressure using the ideal gas law.
Force coefficients computed using free-stream values.

-- Models:
+------------------------------------------------------------------------------+
|          Viscosity Model|        Conductivity Model|              Fluid Model|
+------------------------------------------------------------------------------+
|                        -|                         -|                IDEAL_GAS|
+------------------------------------------------------------------------------+
-- Fluid properties:
+------------------------------------------------------------------------------+
|                  Name|    Dim. value|    Ref. value|      Unit|Non-dim. value|
+------------------------------------------------------------------------------+
|          Gas Constant|           297|             1|  N.m/kg.K|           297|
|      Spec. Heat Ratio|             -|             -|         -|           1.4|
+------------------------------------------------------------------------------+
-- Initial and free-stream conditions:
+------------------------------------------------------------------------------+
|                  Name|    Dim. value|    Ref. value|      Unit|Non-dim. value|
+------------------------------------------------------------------------------+
|       Static Pressure|        803430|             1|        Pa|        803430|
|               Density|       8.02716|             1|    kg/m^3|       8.02716|
|           Temperature|           337|             1|         K|           337|
|          Total Energy|        250223|             1|   m^2/s^2|        250223|
|            Velocity-X|   3.74332e-07|             1|       m/s|   3.74332e-07|
|            Velocity-Y|             0|             1|       m/s|             0|
|    Velocity Magnitude|   3.74332e-07|             1|       m/s|   3.74332e-07|
+------------------------------------------------------------------------------+
|           Mach Number|             -|             -|         -|         1e-09|
+------------------------------------------------------------------------------+
Initialize Jacobian structure (Euler). MG level: 0.

------------------- Numerics Preprocessing ( Zone 0 ) -------------------

----------------- Integration Preprocessing ( Zone 0 ) ------------------

------------------- Iteration Preprocessing ( Zone 0 ) ------------------
Euler/Navier-Stokes/RANS fluid iteration.

------------------------------ Begin Solver -----------------------------

Simulation Run using the Single-zone Driver
+--------------------------------------+
|  Inner_Iter|    rms[Rho]|          HF|
+--------------------------------------+
|           0|    1.683332|  0.0000e+00|
|           1|    1.490371|  0.0000e+00|
|           2|    1.237249|  0.0000e+00|
|           3|    1.057850|  0.0000e+00|
|           4|    1.096982|  0.0000e+00|
|           5|    0.925769|  0.0000e+00|
|           6|    0.881110|  0.0000e+00|
|           7|    0.885682|  0.0000e+00|
|           8|    0.905117|  0.0000e+00|
|           9|    0.764935|  0.0000e+00|
|          10|    0.723907|  0.0000e+00|
|          11|    0.700877|  0.0000e+00|
|          12|    0.640707|  0.0000e+00|
|          13|    0.573457|  0.0000e+00|
|          14|    0.510669|  0.0000e+00|
|          15|    0.478008|  0.0000e+00|
|          16|    0.455488|  0.0000e+00|
|          17|    0.402330|  0.0000e+00|
|          18|    0.377960|  0.0000e+00|
|          19|    0.369130|  0.0000e+00|
|          20|    0.320718|  0.0000e+00|
|          21|    0.303839|  0.0000e+00|
|          22|    0.311187|  0.0000e+00|
|          23|    0.262706|  0.0000e+00|
|          24|    0.249111|  0.0000e+00|
|          25|    0.265241|  0.0000e+00|
|          26|    0.217741|  0.0000e+00|
|          27|    0.204785|  0.0000e+00|
|          28|    0.220442|  0.0000e+00|
|          29|    0.174787|  0.0000e+00|
|          30|    0.164533|  0.0000e+00|
|          31|    0.177671|  0.0000e+00|
|          32|    0.135484|  0.0000e+00|
|          33|    0.132801|  0.0000e+00|
|          34|    0.150005|  0.0000e+00|
|          35|    0.105676|  0.0000e+00|
|          36|    0.105083|  0.0000e+00|
|          37|    0.125948|  0.0000e+00|
|          38|    0.075823|  0.0000e+00|
|          39|    0.074799|  0.0000e+00|
|          40|    0.107548|  0.0000e+00|
|          41|    0.046218|  0.0000e+00|
|          42|    0.042048|  0.0000e+00|
|          43|    0.082459|  0.0000e+00|
|          44|    0.016667|  0.0000e+00|
|          45|    0.017340|  0.0000e+00|
|          46|    0.061241|  0.0000e+00|
|          47|    0.024017|  0.0000e+00|
|          48|    0.039567|  0.0000e+00|
|          49|    0.102763|  0.0000e+00|
|          50|    0.095297|  0.0000e+00|
|          51|    0.126804|  0.0000e+00|
|          52|    0.179413|  0.0000e+00|
|          53|    0.160585|  0.0000e+00|
|          54|    0.165811|  0.0000e+00|
|          55|    0.176881|  0.0000e+00|
|          56|    0.169723|  0.0000e+00|
|          57|    0.203798|  0.0000e+00|
|          58|    0.207642|  0.0000e+00|
|          59|    0.240158|  0.0000e+00|
|          60|    0.191738|  0.0000e+00|
|          61|    0.172477|  0.0000e+00|
|          62|    0.283829|  0.0000e+00|
|          63|    0.271279|  0.0000e+00|
|          64|    0.245848|  0.0000e+00|
|          65|    0.102730|  0.0000e+00|
|          66|    0.064035|  0.0000e+00|
|          67|    0.154719|  0.0000e+00|
|          68|    0.236006|  0.0000e+00|
|          69|    0.292634|  0.0000e+00|
|          70|    0.180272|  0.0000e+00|
|          71|    0.196610|  0.0000e+00|
|          72|    0.298202|  0.0000e+00|
|          73|    0.291551|  0.0000e+00|
|          74|    0.296995|  0.0000e+00|
|          75|    0.336796|  0.0000e+00|
|          76|    0.326997|  0.0000e+00|
|          77|    0.339111|  0.0000e+00|
|          78|    0.363710|  0.0000e+00|
|          79|    0.358293|  0.0000e+00|
|          80|    0.371317|  0.0000e+00|
|          81|    0.396681|  0.0000e+00|
|          82|    0.380658|  0.0000e+00|
|          83|    0.389898|  0.0000e+00|
|          84|    0.414023|  0.0000e+00|
|          85|    0.399130|  0.0000e+00|
|          86|    0.399381|  0.0000e+00|
|          87|    0.421276|  0.0000e+00|
|          88|    0.400749|  0.0000e+00|
|          89|    0.401046|  0.0000e+00|
|          90|    0.424928|  0.0000e+00|
|          91|    0.394156|  0.0000e+00|
|          92|    0.400571|  0.0000e+00|
|          93|    0.433004|  0.0000e+00|
|          94|    0.390824|  0.0000e+00|
|          95|    0.399485|  0.0000e+00|
|          96|    0.431208|  0.0000e+00|
|          97|    0.378205|  0.0000e+00|
|          98|    0.383493|  0.0000e+00|
|          99|    0.403856|  0.0000e+00|
|         100|    0.350255|  0.0000e+00|
+-----------------------------------------------------------------------+
|        File Writing Summary       |              Filename             |
+-----------------------------------------------------------------------+
|SU2 restart                        |solution.dat                       |
|SU2 ASCII restart                  |solution.csv                       |
|Paraview                           |flow.vtu                           |
|Tecplot ASCII                      |flow.dat                           |
|Paraview surface                   |surface_flow.vtu                   |
+-----------------------------------------------------------------------+
+--------------------------------------+
|  Inner_Iter|    rms[Rho]|          HF|
+--------------------------------------+
|         101|    0.369063|  0.0000e+00|
|         102|    0.398280|  0.0000e+00|
|         103|    0.352283|  0.0000e+00|
|         104|    0.362998|  0.0000e+00|
|         105|    0.382789|  0.0000e+00|
|         106|    0.356524|  0.0000e+00|
|         107|    0.338285|  0.0000e+00|
|         108|    0.303431|  0.0000e+00|
|         109|    0.241839|  0.0000e+00|
|         110|    0.186970|  0.0000e+00|
|         111|    0.148579|  0.0000e+00|
|         112|    0.113852|  0.0000e+00|
|         113|    0.096044|  0.0000e+00|
|         114|    0.123293|  0.0000e+00|
|         115|    0.086704|  0.0000e+00|
|         116|    0.088134|  0.0000e+00|
|         117|    0.140812|  0.0000e+00|
|         118|    0.099826|  0.0000e+00|
|         119|    0.091178|  0.0000e+00|
|         120|    0.089649|  0.0000e+00|
|         121|    0.091101|  0.0000e+00|
|         122|    0.093851|  0.0000e+00|
|         123|    0.097037|  0.0000e+00|
|         124|    0.100263|  0.0000e+00|
|         125|    0.103381|  0.0000e+00|
|         126|    0.106317|  0.0000e+00|
|         127|    0.109022|  0.0000e+00|
|         128|    0.111465|  0.0000e+00|
|         129|    0.113507|  0.0000e+00|
|         130|    0.115154|  0.0000e+00|
|         131|    0.116351|  0.0000e+00|
|         132|    0.117069|  0.0000e+00|
|         133|    0.117321|  0.0000e+00|
|         134|    0.117181|  0.0000e+00|
|         135|    0.116897|  0.0000e+00|
|         136|    0.116740|  0.0000e+00|
|         137|    0.117053|  0.0000e+00|
|         138|    0.118119|  0.0000e+00|
|         139|    0.119978|  0.0000e+00|
|         140|    0.122598|  0.0000e+00|
|         141|    0.125880|  0.0000e+00|
|         142|    0.129642|  0.0000e+00|
|         143|    0.133700|  0.0000e+00|
|         144|    0.138045|  0.0000e+00|
|         145|    0.142329|  0.0000e+00|
|         146|    0.146261|  0.0000e+00|
|         147|    0.150239|  0.0000e+00|
|         148|    0.154052|  0.0000e+00|
|         149|    0.157266|  0.0000e+00|
|         150|    0.160444|  0.0000e+00|
|         151|    0.163709|  0.0000e+00|
|         152|    0.166867|  0.0000e+00|
|         153|    0.169827|  0.0000e+00|
|         154|    0.172280|  0.0000e+00|
|         155|    0.174359|  0.0000e+00|
|         156|    0.176067|  0.0000e+00|
|         157|    0.177259|  0.0000e+00|
|         158|    0.177911|  0.0000e+00|
|         159|    0.177891|  0.0000e+00|
|         160|    0.177046|  0.0000e+00|
|         161|    0.175300|  0.0000e+00|
|         162|    0.172586|  0.0000e+00|
|         163|    0.168916|  0.0000e+00|
|         164|    0.170340|  0.0000e+00|
|         165|    0.188102|  0.0000e+00|
|         166|    0.148411|  0.0000e+00|
|         167|    0.132097|  0.0000e+00|
|         168|    0.110556|  0.0000e+00|
|         169|    0.095482|  0.0000e+00|
|         170|    0.068702|  0.0000e+00|
|         171|    0.056219|  0.0000e+00|
|         172|    0.056080|  0.0000e+00|
|         173|    0.043097|  0.0000e+00|
|         174|    0.043448|  0.0000e+00|
|         175|    0.055667|  0.0000e+00|
|         176|    0.042052|  0.0000e+00|
|         177|    0.038212|  0.0000e+00|
|         178|    0.049410|  0.0000e+00|
|         179|    0.026147|  0.0000e+00|
|         180|    0.011817|  0.0000e+00|
|         181|    0.024236|  0.0000e+00|
|         182|   -0.007816|  0.0000e+00|
|         183|   -0.028765|  0.0000e+00|
|         184|   -0.012365|  0.0000e+00|
|         185|   -0.048904|  0.0000e+00|
|         186|   -0.071129|  0.0000e+00|
|         187|   -0.050371|  0.0000e+00|
|         188|   -0.089805|  0.0000e+00|
|         189|   -0.104579|  0.0000e+00|
|         190|   -0.060206|  0.0000e+00|
|         191|   -0.104976|  0.0000e+00|
|         192|   -0.112395|  0.0000e+00|
|         193|   -0.052889|  0.0000e+00|
|         194|   -0.110741|  0.0000e+00|
|         195|   -0.125319|  0.0000e+00|
|         196|   -0.074152|  0.0000e+00|
|         197|   -0.142923|  0.0000e+00|
|         198|   -0.167947|  0.0000e+00|
|         199|   -0.137943|  0.0000e+00|
|         200|   -0.211573|  0.0000e+00|
+-----------------------------------------------------------------------+
|        File Writing Summary       |              Filename             |
+-----------------------------------------------------------------------+
|SU2 restart                        |solution.dat                       |
|SU2 ASCII restart                  |solution.csv                       |
|Paraview                           |flow.vtu                           |
|Tecplot ASCII                      |flow.dat                           |
|Paraview surface                   |surface_flow.vtu                   |
+-----------------------------------------------------------------------+
+--------------------------------------+
|  Inner_Iter|    rms[Rho]|          HF|
+--------------------------------------+
|         201|   -0.245901|  0.0000e+00|
|         202|   -0.241198|  0.0000e+00|
|         203|   -0.308220|  0.0000e+00|
|         204|   -0.342892|  0.0000e+00|
|         205|   -0.345508|  0.0000e+00|
|         206|   -0.397646|  0.0000e+00|
|         207|   -0.421887|  0.0000e+00|
|         208|   -0.405064|  0.0000e+00|
|         209|   -0.449976|  0.0000e+00|
|         210|   -0.464831|  0.0000e+00|
|         211|   -0.426490|  0.0000e+00|
|         212|   -0.473538|  0.0000e+00|
|         213|   -0.483643|  0.0000e+00|
|         214|   -0.430280|  0.0000e+00|
|         215|   -0.481976|  0.0000e+00|
|         216|   -0.488881|  0.0000e+00|
|         217|   -0.429791|  0.0000e+00|
|         218|   -0.488050|  0.0000e+00|
|         219|   -0.498585|  0.0000e+00|
|         220|   -0.453428|  0.0000e+00|
|         221|   -0.519730|  0.0000e+00|
|         222|   -0.542923|  0.0000e+00|
|         223|   -0.526800|  0.0000e+00|
|         224|   -0.600688|  0.0000e+00|
|         225|   -0.640031|  0.0000e+00|
|         226|   -0.653763|  0.0000e+00|
|         227|   -0.731656|  0.0000e+00|
|         228|   -0.780743|  0.0000e+00|
|         229|   -0.797290|  0.0000e+00|
|         230|   -0.864283|  0.0000e+00|
|         231|   -0.894241|  0.0000e+00|
|         232|   -0.850170|  0.0000e+00|
|         233|   -0.892586|  0.0000e+00|
|         234|   -0.888285|  0.0000e+00|
|         235|   -0.800389|  0.0000e+00|
|         236|   -0.840408|  0.0000e+00|
|         237|   -0.833344|  0.0000e+00|
|         238|   -0.753105|  0.0000e+00|
|         239|   -0.802591|  0.0000e+00|
|         240|   -0.806738|  0.0000e+00|
|         241|   -0.748160|  0.0000e+00|
|         242|   -0.807489|  0.0000e+00|
|         243|   -0.824712|  0.0000e+00|
|         244|   -0.790288|  0.0000e+00|
|         245|   -0.858027|  0.0000e+00|
|         246|   -0.888145|  0.0000e+00|
|         247|   -0.878819|  0.0000e+00|
|         248|   -0.952495|  0.0000e+00|
|         249|   -0.993942|  0.0000e+00|
|         250|   -1.007977|  0.0000e+00|
|         251|   -1.081095|  0.0000e+00|
|         252|   -1.126034|  0.0000e+00|
|         253|   -1.143686|  0.0000e+00|
|         254|   -1.198865|  0.0000e+00|
|         255|   -1.223769|  0.0000e+00|
|         256|   -1.195200|  0.0000e+00|
|         257|   -1.227443|  0.0000e+00|
|         258|   -1.225128|  0.0000e+00|
|         259|   -1.156140|  0.0000e+00|
|         260|   -1.190502|  0.0000e+00|
|         261|   -1.186143|  0.0000e+00|
|         262|   -1.117267|  0.0000e+00|
|         263|   -1.163483|  0.0000e+00|
|         264|   -1.169077|  0.0000e+00|
|         265|   -1.115586|  0.0000e+00|
|         266|   -1.172826|  0.0000e+00|
|         267|   -1.190206|  0.0000e+00|
|         268|   -1.155600|  0.0000e+00|
|         269|   -1.221912|  0.0000e+00|
|         270|   -1.250675|  0.0000e+00|
|         271|   -1.235603|  0.0000e+00|
|         272|   -1.308838|  0.0000e+00|
|         273|   -1.347275|  0.0000e+00|
|         274|   -1.349320|  0.0000e+00|
|         275|   -1.424648|  0.0000e+00|
|         276|   -1.466324|  0.0000e+00|
|         277|   -1.471730|  0.0000e+00|
|         278|   -1.535844|  0.0000e+00|
|         279|   -1.563431|  0.0000e+00|
|         280|   -1.540237|  0.0000e+00|
|         281|   -1.580773|  0.0000e+00|
|         282|   -1.583993|  0.0000e+00|
|         283|   -1.527136|  0.0000e+00|
|         284|   -1.558418|  0.0000e+00|
|         285|   -1.554385|  0.0000e+00|
|         286|   -1.491426|  0.0000e+00|
|         287|   -1.528653|  0.0000e+00|
|         288|   -1.530520|  0.0000e+00|
|         289|   -1.476209|  0.0000e+00|
|         290|   -1.523222|  0.0000e+00|
|         291|   -1.534262|  0.0000e+00|
|         292|   -1.492557|  0.0000e+00|
|         293|   -1.549162|  0.0000e+00|
|         294|   -1.569474|  0.0000e+00|
|         295|   -1.541570|  0.0000e+00|
|         296|   -1.606043|  0.0000e+00|
|         297|   -1.634583|  0.0000e+00|
|         298|   -1.620643|  0.0000e+00|
|         299|   -1.689320|  0.0000e+00|
|         300|   -1.722937|  0.0000e+00|
+-----------------------------------------------------------------------+
|        File Writing Summary       |              Filename             |
+-----------------------------------------------------------------------+
|SU2 restart                        |solution.dat                       |
|SU2 ASCII restart                  |solution.csv                       |
|Paraview                           |flow.vtu                           |
|Tecplot ASCII                      |flow.dat                           |
|Paraview surface                   |surface_flow.vtu                   |
+-----------------------------------------------------------------------+
+--------------------------------------+
|  Inner_Iter|    rms[Rho]|          HF|
+--------------------------------------+
|         301|   -1.719511|  0.0000e+00|
|         302|   -1.783943|  0.0000e+00|
|         303|   -1.814141|  0.0000e+00|
|         304|   -1.806332|  0.0000e+00|
|         305|   -1.854376|  0.0000e+00|
|         306|   -1.869371|  0.0000e+00|
|         307|   -1.836686|  0.0000e+00|
|         308|   -1.869850|  0.0000e+00|
|         309|   -1.871396|  0.0000e+00|
|         310|   -1.818054|  0.0000e+00|
|         311|   -1.851940|  0.0000e+00|
|         312|   -1.852677|  0.0000e+00|
|         313|   -1.796648|  0.0000e+00|
|         314|   -1.839599|  0.0000e+00|
|         315|   -1.846940|  0.0000e+00|
|         316|   -1.798905|  0.0000e+00|
|         317|   -1.851577|  0.0000e+00|
|         318|   -1.867564|  0.0000e+00|
|         319|   -1.832332|  0.0000e+00|
|         320|   -1.893471|  0.0000e+00|
|         321|   -1.918317|  0.0000e+00|
|         322|   -1.898190|  0.0000e+00|
|         323|   -1.965460|  0.0000e+00|
|         324|   -1.998055|  0.0000e+00|
|         325|   -1.993474|  0.0000e+00|
|         326|   -2.062083|  0.0000e+00|
|         327|   -2.098205|  0.0000e+00|
|         328|   -2.103363|  0.0000e+00|
|         329|   -2.162744|  0.0000e+00|
|         330|   -2.191352|  0.0000e+00|
|         331|   -2.186095|  0.0000e+00|
|         332|   -2.224767|  0.0000e+00|
|         333|   -2.234824|  0.0000e+00|
|         334|   -2.201741|  0.0000e+00|
|         335|   -2.227683|  0.0000e+00|
|         336|   -2.226531|  0.0000e+00|
|         337|   -2.178401|  0.0000e+00|
|         338|   -2.207382|  0.0000e+00|
|         339|   -2.207805|  0.0000e+00|
|         340|   -2.161946|  0.0000e+00|
|         341|   -2.198997|  0.0000e+00|
|         342|   -2.206045|  0.0000e+00|
|         343|   -2.170325|  0.0000e+00|
|         344|   -2.214242|  0.0000e+00|
|         345|   -2.228174|  0.0000e+00|
|         346|   -2.205110|  0.0000e+00|
|         347|   -2.252375|  0.0000e+00|
|         348|   -2.271159|  0.0000e+00|
|         349|   -2.260235|  0.0000e+00|
|         350|   -2.305386|  0.0000e+00|
|         351|   -2.324843|  0.0000e+00|
|         352|   -2.321394|  0.0000e+00|
|         353|   -2.357571|  0.0000e+00|
|         354|   -2.371900|  0.0000e+00|
|         355|   -2.366208|  0.0000e+00|
|         356|   -2.390003|  0.0000e+00|
|         357|   -2.395939|  0.0000e+00|
|         358|   -2.379976|  0.0000e+00|
|         359|   -2.396559|  0.0000e+00|
|         360|   -2.397106|  0.0000e+00|
|         361|   -2.372457|  0.0000e+00|
|         362|   -2.389929|  0.0000e+00|
|         363|   -2.390495|  0.0000e+00|
|         364|   -2.364013|  0.0000e+00|
|         365|   -2.386289|  0.0000e+00|
|         366|   -2.390153|  0.0000e+00|
|         367|   -2.367516|  0.0000e+00|
|         368|   -2.394480|  0.0000e+00|
|         369|   -2.402435|  0.0000e+00|
|         370|   -2.386835|  0.0000e+00|
|         371|   -2.416279|  0.0000e+00|
|         372|   -2.427509|  0.0000e+00|
|         373|   -2.420087|  0.0000e+00|
|         374|   -2.448674|  0.0000e+00|
|         375|   -2.461248|  0.0000e+00|
|         376|   -2.461136|  0.0000e+00|
|         377|   -2.485028|  0.0000e+00|
|         378|   -2.496298|  0.0000e+00|
|         379|   -2.500402|  0.0000e+00|
|         380|   -2.516686|  0.0000e+00|
|         381|   -2.524313|  0.0000e+00|
|         382|   -2.528150|  0.0000e+00|
|         383|   -2.536854|  0.0000e+00|
|         384|   -2.540224|  0.0000e+00|
|         385|   -2.540593|  0.0000e+00|
|         386|   -2.544808|  0.0000e+00|
|         387|   -2.545285|  0.0000e+00|
|         388|   -2.542093|  0.0000e+00|
|         389|   -2.545369|  0.0000e+00|
|         390|   -2.544919|  0.0000e+00|
|         391|   -2.540134|  0.0000e+00|
|         392|   -2.544320|  0.0000e+00|
|         393|   -2.544220|  0.0000e+00|
|         394|   -2.539924|  0.0000e+00|
|         395|   -2.545089|  0.0000e+00|
|         396|   -2.545689|  0.0000e+00|
|         397|   -2.543064|  0.0000e+00|
|         398|   -2.548352|  0.0000e+00|
|         399|   -2.549358|  0.0000e+00|
|         400|   -2.548501|  0.0000e+00|
+-----------------------------------------------------------------------+
|        File Writing Summary       |              Filename             |
+-----------------------------------------------------------------------+
|SU2 restart                        |solution.dat                       |
|SU2 ASCII restart                  |solution.csv                       |
|Paraview                           |flow.vtu                           |
|Tecplot ASCII                      |flow.dat                           |
|Paraview surface                   |surface_flow.vtu                   |
+-----------------------------------------------------------------------+
+--------------------------------------+
|  Inner_Iter|    rms[Rho]|          HF|
+--------------------------------------+
|         401|   -2.552992|  0.0000e+00|
|         402|   -2.553909|  0.0000e+00|
|         403|   -2.554146|  0.0000e+00|
|         404|   -2.557421|  0.0000e+00|
|         405|   -2.557912|  0.0000e+00|
|         406|   -2.558346|  0.0000e+00|
|         407|   -2.560636|  0.0000e+00|
|         408|   -2.560694|  0.0000e+00|
|         409|   -2.560729|  0.0000e+00|
|         410|   -2.562673|  0.0000e+00|
|         411|   -2.562560|  0.0000e+00|
|         412|   -2.562139|  0.0000e+00|
|         413|   -2.564356|  0.0000e+00|
|         414|   -2.564411|  0.0000e+00|
|         415|   -2.563901|  0.0000e+00|
|         416|   -2.566685|  0.0000e+00|
|         417|   -2.567134|  0.0000e+00|
|         418|   -2.567037|  0.0000e+00|
|         419|   -2.570291|  0.0000e+00|
|         420|   -2.571166|  0.0000e+00|
|         421|   -2.571854|  0.0000e+00|
|         422|   -2.575215|  0.0000e+00|
|         423|   -2.576372|  0.0000e+00|
|         424|   -2.577952|  0.0000e+00|
|         425|   -2.580983|  0.0000e+00|
|         426|   -2.582190|  0.0000e+00|
|         427|   -2.584504|  0.0000e+00|
|         428|   -2.586875|  0.0000e+00|
|         429|   -2.587906|  0.0000e+00|
|         430|   -2.590634|  0.0000e+00|
|         431|   -2.592223|  0.0000e+00|
|         432|   -2.592939|  0.0000e+00|
|         433|   -2.595746|  0.0000e+00|
|         434|   -2.596642|  0.0000e+00|
|         435|   -2.597018|  0.0000e+00|
|         436|   -2.599677|  0.0000e+00|
|         437|   -2.600092|  0.0000e+00|
|         438|   -2.600193|  0.0000e+00|
|         439|   -2.602627|  0.0000e+00|
|         440|   -2.602792|  0.0000e+00|
|         441|   -2.602720|  0.0000e+00|
|         442|   -2.604970|  0.0000e+00|
|         443|   -2.605054|  0.0000e+00|
|         444|   -2.604901|  0.0000e+00|
|         445|   -2.607062|  0.0000e+00|
|         446|   -2.607149|  0.0000e+00|
|         447|   -2.606976|  0.0000e+00|
|         448|   -2.609134|  0.0000e+00|
|         449|   -2.609243|  0.0000e+00|
|         450|   -2.609078|  0.0000e+00|
|         451|   -2.611281|  0.0000e+00|
|         452|   -2.611404|  0.0000e+00|
|         453|   -2.611255|  0.0000e+00|
|         454|   -2.613513|  0.0000e+00|
|         455|   -2.613645|  0.0000e+00|
|         456|   -2.613516|  0.0000e+00|
|         457|   -2.615819|  0.0000e+00|
|         458|   -2.615970|  0.0000e+00|
|         459|   -2.615869|  0.0000e+00|
|         460|   -2.618210|  0.0000e+00|
|         461|   -2.618395|  0.0000e+00|
|         462|   -2.618334|  0.0000e+00|
|         463|   -2.620719|  0.0000e+00|
|         464|   -2.620949|  0.0000e+00|
|         465|   -2.620940|  0.0000e+00|
|         466|   -2.623383|  0.0000e+00|
|         467|   -2.623657|  0.0000e+00|
|         468|   -2.623702|  0.0000e+00|
|         469|   -2.626223|  0.0000e+00|
|         470|   -2.626520|  0.0000e+00|
|         471|   -2.626612|  0.0000e+00|
|         472|   -2.629221|  0.0000e+00|
|         473|   -2.629510|  0.0000e+00|
|         474|   -2.629632|  0.0000e+00|
|         475|   -2.632325|  0.0000e+00|
|         476|   -2.632572|  0.0000e+00|
|         477|   -2.632704|  0.0000e+00|
|         478|   -2.635464|  0.0000e+00|
|         479|   -2.635645|  0.0000e+00|
|         480|   -2.635767|  0.0000e+00|
|         481|   -2.638570|  0.0000e+00|
|         482|   -2.638674|  0.0000e+00|
|         483|   -2.638773|  0.0000e+00|
|         484|   -2.641594|  0.0000e+00|
|         485|   -2.641622|  0.0000e+00|
|         486|   -2.641692|  0.0000e+00|
|         487|   -2.644513|  0.0000e+00|
|         488|   -2.644478|  0.0000e+00|
|         489|   -2.644519|  0.0000e+00|
|         490|   -2.647332|  0.0000e+00|
|         491|   -2.647249|  0.0000e+00|
|         492|   -2.647269|  0.0000e+00|
|         493|   -2.650070|  0.0000e+00|
|         494|   -2.649957|  0.0000e+00|
|         495|   -2.649962|  0.0000e+00|
|         496|   -2.652758|  0.0000e+00|
|         497|   -2.652626|  0.0000e+00|
|         498|   -2.652624|  0.0000e+00|
|         499|   -2.655421|  0.0000e+00|
|         500|   -2.655281|  0.0000e+00|
+-----------------------------------------------------------------------+
|        File Writing Summary       |              Filename             |
+-----------------------------------------------------------------------+
|SU2 restart                        |solution.dat                       |
|SU2 ASCII restart                  |solution.csv                       |
|Paraview                           |flow.vtu                           |
|Tecplot ASCII                      |flow.dat                           |
|Paraview surface                   |surface_flow.vtu                   |
+-----------------------------------------------------------------------+
+--------------------------------------+
|  Inner_Iter|    rms[Rho]|          HF|
+--------------------------------------+
|         501|   -2.655277|  0.0000e+00|
|         502|   -2.658081|  0.0000e+00|
|         503|   -2.657938|  0.0000e+00|
|         504|   -2.657938|  0.0000e+00|
|         505|   -2.660755|  0.0000e+00|
|         506|   -2.660612|  0.0000e+00|
|         507|   -2.660620|  0.0000e+00|
|         508|   -2.663453|  0.0000e+00|
|         509|   -2.663312|  0.0000e+00|
|         510|   -2.663330|  0.0000e+00|
|         511|   -2.666180|  0.0000e+00|
|         512|   -2.666042|  0.0000e+00|
|         513|   -2.666072|  0.0000e+00|
|         514|   -2.668941|  0.0000e+00|
|         515|   -2.668804|  0.0000e+00|
|         516|   -2.668846|  0.0000e+00|
|         517|   -2.671735|  0.0000e+00|
|         518|   -2.671597|  0.0000e+00|
|         519|   -2.671650|  0.0000e+00|
|         520|   -2.674558|  0.0000e+00|
|         521|   -2.674417|  0.0000e+00|
|         522|   -2.674479|  0.0000e+00|
|         523|   -2.677404|  0.0000e+00|
|         524|   -2.677256|  0.0000e+00|
|         525|   -2.677325|  0.0000e+00|
|         526|   -2.680265|  0.0000e+00|
|         527|   -2.680106|  0.0000e+00|
|         528|   -2.680180|  0.0000e+00|
|         529|   -2.683132|  0.0000e+00|
|         530|   -2.682960|  0.0000e+00|
|         531|   -2.683036|  0.0000e+00|
|         532|   -2.685997|  0.0000e+00|
|         533|   -2.685811|  0.0000e+00|
|         534|   -2.685887|  0.0000e+00|
|         535|   -2.688854|  0.0000e+00|
|         536|   -2.688654|  0.0000e+00|
|         537|   -2.688729|  0.0000e+00|
|         538|   -2.691700|  0.0000e+00|
|         539|   -2.691486|  0.0000e+00|
|         540|   -2.691560|  0.0000e+00|
|         541|   -2.694534|  0.0000e+00|
|         542|   -2.694308|  0.0000e+00|
|         543|   -2.694381|  0.0000e+00|
|         544|   -2.697357|  0.0000e+00|
|         545|   -2.697121|  0.0000e+00|
|         546|   -2.697193|  0.0000e+00|
|         547|   -2.700172|  0.0000e+00|
|         548|   -2.699927|  0.0000e+00|
|         549|   -2.700000|  0.0000e+00|
|         550|   -2.702981|  0.0000e+00|
|         551|   -2.702729|  0.0000e+00|
|         552|   -2.702803|  0.0000e+00|
|         553|   -2.705787|  0.0000e+00|
|         554|   -2.705530|  0.0000e+00|
|         555|   -2.705605|  0.0000e+00|
|         556|   -2.708593|  0.0000e+00|
|         557|   -2.708331|  0.0000e+00|
|         558|   -2.708409|  0.0000e+00|
|         559|   -2.711400|  0.0000e+00|
|         560|   -2.711135|  0.0000e+00|
|         561|   -2.711215|  0.0000e+00|
|         562|   -2.714210|  0.0000e+00|
|         563|   -2.713941|  0.0000e+00|
|         564|   -2.714024|  0.0000e+00|
|         565|   -2.717023|  0.0000e+00|
|         566|   -2.716750|  0.0000e+00|
|         567|   -2.716836|  0.0000e+00|
|         568|   -2.719838|  0.0000e+00|
|         569|   -2.719561|  0.0000e+00|
|         570|   -2.719651|  0.0000e+00|
|         571|   -2.722655|  0.0000e+00|
|         572|   -2.722374|  0.0000e+00|
|         573|   -2.722466|  0.0000e+00|
|         574|   -2.725473|  0.0000e+00|
|         575|   -2.725188|  0.0000e+00|
|         576|   -2.725282|  0.0000e+00|
|         577|   -2.728291|  0.0000e+00|
|         578|   -2.728001|  0.0000e+00|
|         579|   -2.728097|  0.0000e+00|
|         580|   -2.731107|  0.0000e+00|
|         581|   -2.730812|  0.0000e+00|
|         582|   -2.730910|  0.0000e+00|
|         583|   -2.733922|  0.0000e+00|
|         584|   -2.733621|  0.0000e+00|
|         585|   -2.733720|  0.0000e+00|
|         586|   -2.736733|  0.0000e+00|
|         587|   -2.736428|  0.0000e+00|
|         588|   -2.735934|  0.0000e+00|
|         589|   -2.736025|  0.0000e+00|
|         590|   -2.739142|  0.0000e+00|
|         591|   -2.738819|  0.0000e+00|
|         592|   -2.738949|  0.0000e+00|
|         593|   -2.742053|  0.0000e+00|
|         594|   -2.741757|  0.0000e+00|
|         595|   -2.741908|  0.0000e+00|
|         596|   -2.745017|  0.0000e+00|
|         597|   -2.744720|  0.0000e+00|
|         598|   -2.744869|  0.0000e+00|
|         599|   -2.747947|  0.0000e+00|
|         600|   -2.747637|  0.0000e+00|
+-----------------------------------------------------------------------+
|        File Writing Summary       |              Filename             |
+-----------------------------------------------------------------------+
|SU2 restart                        |solution.dat                       |
|SU2 ASCII restart                  |solution.csv                       |
|Paraview                           |flow.vtu                           |
|Tecplot ASCII                      |flow.dat                           |
|Paraview surface                   |surface_flow.vtu                   |
+-----------------------------------------------------------------------+
+--------------------------------------+
|  Inner_Iter|    rms[Rho]|          HF|
+--------------------------------------+
|         601|   -2.747767|  0.0000e+00|
|         602|   -2.750802|  0.0000e+00|
|         603|   -2.750481|  0.0000e+00|
|         604|   -2.750594|  0.0000e+00|
|         605|   -2.753607|  0.0000e+00|
|         606|   -2.753280|  0.0000e+00|
|         607|   -2.753390|  0.0000e+00|
|         608|   -2.756398|  0.0000e+00|
|         609|   -2.756069|  0.0000e+00|
|         610|   -2.756182|  0.0000e+00|
|         611|   -2.759190|  0.0000e+00|
|         612|   -2.758859|  0.0000e+00|
|         613|   -2.758973|  0.0000e+00|
|         614|   -2.761980|  0.0000e+00|
|         615|   -2.761646|  0.0000e+00|
|         616|   -2.761760|  0.0000e+00|
|         617|   -2.764766|  0.0000e+00|
|         618|   -2.764429|  0.0000e+00|
|         619|   -2.764544|  0.0000e+00|
|         620|   -2.767551|  0.0000e+00|
|         621|   -2.767211|  0.0000e+00|
|         622|   -2.767328|  0.0000e+00|
|         623|   -2.770336|  0.0000e+00|
|         624|   -2.769994|  0.0000e+00|
|         625|   -2.770115|  0.0000e+00|
|         626|   -2.773124|  0.0000e+00|
|         627|   -2.772781|  0.0000e+00|
|         628|   -2.772904|  0.0000e+00|
|         629|   -2.775914|  0.0000e+00|
|         630|   -2.775569|  0.0000e+00|
|         631|   -2.775074|  0.0000e+00|
|         632|   -2.774533|  0.0000e+00|
|         633|   -2.774721|  0.0000e+00|
|         634|   -2.774217|  0.0000e+00|
|         635|   -2.774493|  0.0000e+00|
|         636|   -2.774033|  0.0000e+00|
|         637|   -2.774386|  0.0000e+00|
|         638|   -2.773959|  0.0000e+00|
|         639|   -2.774381|  0.0000e+00|
|         640|   -2.773992|  0.0000e+00|
|         641|   -2.774498|  0.0000e+00|
|         642|   -2.774157|  0.0000e+00|
|         643|   -2.774759|  0.0000e+00|
|         644|   -2.774467|  0.0000e+00|
|         645|   -2.774177|  0.0000e+00|
|         646|   -2.774926|  0.0000e+00|
|         647|   -2.774689|  0.0000e+00|
|         648|   -2.774455|  0.0000e+00|
|         649|   -2.775298|  0.0000e+00|
|         650|   -2.775098|  0.0000e+00|
|         651|   -2.774896|  0.0000e+00|
|         652|   -2.775781|  0.0000e+00|
|         653|   -2.775597|  0.0000e+00|
|         654|   -2.775409|  0.0000e+00|
|         655|   -2.776313|  0.0000e+00|
|         656|   -2.776138|  0.0000e+00|
|         657|   -2.775959|  0.0000e+00|
|         658|   -2.776876|  0.0000e+00|
|         659|   -2.776711|  0.0000e+00|
|         660|   -2.776543|  0.0000e+00|
|         661|   -2.777473|  0.0000e+00|
|         662|   -2.777320|  0.0000e+00|
|         663|   -2.777165|  0.0000e+00|
|         664|   -2.778106|  0.0000e+00|
|         665|   -2.777964|  0.0000e+00|
|         666|   -2.777818|  0.0000e+00|
|         667|   -2.778765|  0.0000e+00|
|         668|   -2.778631|  0.0000e+00|
|         669|   -2.778491|  0.0000e+00|
|         670|   -2.779437|  0.0000e+00|
|         671|   -2.779306|  0.0000e+00|
|         672|   -2.779169|  0.0000e+00|
|         673|   -2.780111|  0.0000e+00|
|         674|   -2.779982|  0.0000e+00|
|         675|   -2.779847|  0.0000e+00|
|         676|   -2.780785|  0.0000e+00|
|         677|   -2.780657|  0.0000e+00|
|         678|   -2.780524|  0.0000e+00|
|         679|   -2.781460|  0.0000e+00|
|         680|   -2.781335|  0.0000e+00|
|         681|   -2.781204|  0.0000e+00|
|         682|   -2.782139|  0.0000e+00|
|         683|   -2.782016|  0.0000e+00|
|         684|   -2.781888|  0.0000e+00|
|         685|   -2.782821|  0.0000e+00|
|         686|   -2.782700|  0.0000e+00|
|         687|   -2.782574|  0.0000e+00|
|         688|   -2.783504|  0.0000e+00|
|         689|   -2.783384|  0.0000e+00|
|         690|   -2.783258|  0.0000e+00|
|         691|   -2.783137|  0.0000e+00|
|         692|   -2.784088|  0.0000e+00|
|         693|   -2.783974|  0.0000e+00|
|         694|   -2.783857|  0.0000e+00|
|         695|   -2.784793|  0.0000e+00|
|         696|   -2.784681|  0.0000e+00|
|         697|   -2.784564|  0.0000e+00|
|         698|   -2.785493|  0.0000e+00|
|         699|   -2.785384|  0.0000e+00|
|         700|   -2.785272|  0.0000e+00|
+-----------------------------------------------------------------------+
|        File Writing Summary       |              Filename             |
+-----------------------------------------------------------------------+
|SU2 restart                        |solution.dat                       |
|SU2 ASCII restart                  |solution.csv                       |
|Paraview                           |flow.vtu                           |
|Tecplot ASCII                      |flow.dat                           |
|Paraview surface                   |surface_flow.vtu                   |
+-----------------------------------------------------------------------+
+--------------------------------------+
|  Inner_Iter|    rms[Rho]|          HF|
+--------------------------------------+
|         701|   -2.786204|  0.0000e+00|
|         702|   -2.786103|  0.0000e+00|
|         703|   -2.785998|  0.0000e+00|
|         704|   -2.786938|  0.0000e+00|
|         705|   -2.786844|  0.0000e+00|
|         706|   -2.786746|  0.0000e+00|
|         707|   -2.787691|  0.0000e+00|
|         708|   -2.787602|  0.0000e+00|
|         709|   -2.787509|  0.0000e+00|
|         710|   -2.787421|  0.0000e+00|
|         711|   -2.787342|  0.0000e+00|
|         712|   -2.787272|  0.0000e+00|
|         713|   -2.788295|  0.0000e+00|
|         714|   -2.788231|  0.0000e+00|
|         715|   -2.788163|  0.0000e+00|
|         716|   -2.788100|  0.0000e+00|
|         717|   -2.788043|  0.0000e+00|
|         718|   -2.787995|  0.0000e+00|
|         719|   -2.789048|  0.0000e+00|
|         720|   -2.789000|  0.0000e+00|
|         721|   -2.788952|  0.0000e+00|
|         722|   -2.788911|  0.0000e+00|
|         723|   -2.788877|  0.0000e+00|
|         724|   -2.788853|  0.0000e+00|
|         725|   -2.789947|  0.0000e+00|
|         726|   -2.789922|  0.0000e+00|
|         727|   -2.789896|  0.0000e+00|
|         728|   -2.789877|  0.0000e+00|
|         729|   -2.789864|  0.0000e+00|
|         730|   -2.789858|  0.0000e+00|
|         731|   -2.790969|  0.0000e+00|
|         732|   -2.790955|  0.0000e+00|
|         733|   -2.790939|  0.0000e+00|
|         734|   -2.790928|  0.0000e+00|
|         735|   -2.790922|  0.0000e+00|
|         736|   -2.790922|  0.0000e+00|
|         737|   -2.790928|  0.0000e+00|
|         738|   -2.790942|  0.0000e+00|
|         739|   -2.790962|  0.0000e+00|
|         740|   -2.790987|  0.0000e+00|
|         741|   -2.791018|  0.0000e+00|
|         742|   -2.791052|  0.0000e+00|
|         743|   -2.791089|  0.0000e+00|
|         744|   -2.791130|  0.0000e+00|
|         745|   -2.791174|  0.0000e+00|
|         746|   -2.791222|  0.0000e+00|
|         747|   -2.791274|  0.0000e+00|
|         748|   -2.791332|  0.0000e+00|
|         749|   -2.791394|  0.0000e+00|
|         750|   -2.791463|  0.0000e+00|
|         751|   -2.791538|  0.0000e+00|
|         752|   -2.791619|  0.0000e+00|
|         753|   -2.791706|  0.0000e+00|
|         754|   -2.791799|  0.0000e+00|
|         755|   -2.791898|  0.0000e+00|
|         756|   -2.792001|  0.0000e+00|
|         757|   -2.792109|  0.0000e+00|
|         758|   -2.792221|  0.0000e+00|
|         759|   -2.792337|  0.0000e+00|
|         760|   -2.792455|  0.0000e+00|
|         761|   -2.792577|  0.0000e+00|
|         762|   -2.792701|  0.0000e+00|
|         763|   -2.792827|  0.0000e+00|
|         764|   -2.792955|  0.0000e+00|
|         765|   -2.793084|  0.0000e+00|
|         766|   -2.793215|  0.0000e+00|
|         767|   -2.793347|  0.0000e+00|
|         768|   -2.793480|  0.0000e+00|
|         769|   -2.793614|  0.0000e+00|
|         770|   -2.793750|  0.0000e+00|
|         771|   -2.793887|  0.0000e+00|
|         772|   -2.794025|  0.0000e+00|
|         773|   -2.794165|  0.0000e+00|
|         774|   -2.794306|  0.0000e+00|
|         775|   -2.794450|  0.0000e+00|
|         776|   -2.794594|  0.0000e+00|
|         777|   -2.794741|  0.0000e+00|
|         778|   -2.794889|  0.0000e+00|
|         779|   -2.795039|  0.0000e+00|
|         780|   -2.795191|  0.0000e+00|
|         781|   -2.795344|  0.0000e+00|
|         782|   -2.795499|  0.0000e+00|
|         783|   -2.795656|  0.0000e+00|
|         784|   -2.796987|  0.0000e+00|
|         785|   -2.797121|  0.0000e+00|
|         786|   -2.798363|  0.0000e+00|
|         787|   -2.798483|  0.0000e+00|
|         788|   -2.798596|  0.0000e+00|
|         789|   -2.798711|  0.0000e+00|
|         790|   -2.799941|  0.0000e+00|
|         791|   -2.800051|  0.0000e+00|
|         792|   -2.800158|  0.0000e+00|
|         793|   -2.800267|  0.0000e+00|
|         794|   -2.801467|  0.0000e+00|
|         795|   -2.801562|  0.0000e+00|
|         796|   -2.802693|  0.0000e+00|
|         797|   -2.802771|  0.0000e+00|
|         798|   -2.802839|  0.0000e+00|
|         799|   -2.802907|  0.0000e+00|
|         800|   -2.804028|  0.0000e+00|
+-----------------------------------------------------------------------+
|        File Writing Summary       |              Filename             |
+-----------------------------------------------------------------------+
|SU2 restart                        |solution.dat                       |
|SU2 ASCII restart                  |solution.csv                       |
|Paraview                           |flow.vtu                           |
|Tecplot ASCII                      |flow.dat                           |
|Paraview surface                   |surface_flow.vtu                   |
+-----------------------------------------------------------------------+
+--------------------------------------+
|  Inner_Iter|    rms[Rho]|          HF|
+--------------------------------------+
|         801|   -2.804094|  0.0000e+00|
|         802|   -2.805176|  0.0000e+00|
|         803|   -2.805239|  0.0000e+00|
|         804|   -2.806300|  0.0000e+00|
|         805|   -2.806360|  0.0000e+00|
|         806|   -2.807411|  0.0000e+00|
|         807|   -2.807471|  0.0000e+00|
|         808|   -2.808519|  0.0000e+00|
|         809|   -2.808579|  0.0000e+00|
|         810|   -2.808633|  0.0000e+00|
|         811|   -2.808690|  0.0000e+00|
|         812|   -2.808754|  0.0000e+00|
|         813|   -2.808826|  0.0000e+00|
|         814|   -2.808905|  0.0000e+00|
|         815|   -2.810049|  0.0000e+00|
|         816|   -2.810120|  0.0000e+00|
|         817|   -2.810185|  0.0000e+00|
|         818|   -2.810252|  0.0000e+00|
|         819|   -2.810323|  0.0000e+00|
|         820|   -2.810401|  0.0000e+00|
|         821|   -2.811556|  0.0000e+00|
|         822|   -2.811641|  0.0000e+00|
|         823|   -2.811728|  0.0000e+00|
|         824|   -2.811825|  0.0000e+00|
|         825|   -2.811934|  0.0000e+00|
|         826|   -2.812055|  0.0000e+00|
|         827|   -2.813301|  0.0000e+00|
|         828|   -2.813432|  0.0000e+00|
|         829|   -2.813564|  0.0000e+00|
|         830|   -2.813704|  0.0000e+00|
|         831|   -2.813851|  0.0000e+00|
|         832|   -2.814007|  0.0000e+00|
|         833|   -2.815302|  0.0000e+00|
|         834|   -2.815454|  0.0000e+00|
|         835|   -2.815603|  0.0000e+00|
|         836|   -2.815755|  0.0000e+00|
|         837|   -2.815912|  0.0000e+00|
|         838|   -2.816074|  0.0000e+00|
|         839|   -2.816243|  0.0000e+00|
|         840|   -2.816417|  0.0000e+00|
|         841|   -2.816596|  0.0000e+00|
|         842|   -2.816780|  0.0000e+00|
|         843|   -2.816966|  0.0000e+00|
|         844|   -2.817155|  0.0000e+00|
|         845|   -2.817346|  0.0000e+00|
|         846|   -2.817538|  0.0000e+00|
|         847|   -2.817732|  0.0000e+00|
|         848|   -2.817928|  0.0000e+00|
|         849|   -2.818128|  0.0000e+00|
|         850|   -2.818333|  0.0000e+00|
|         851|   -2.818541|  0.0000e+00|
|         852|   -2.818755|  0.0000e+00|
|         853|   -2.818974|  0.0000e+00|
|         854|   -2.819199|  0.0000e+00|
|         855|   -2.819428|  0.0000e+00|
|         856|   -2.819663|  0.0000e+00|
|         857|   -2.819901|  0.0000e+00|
|         858|   -2.820144|  0.0000e+00|
|         859|   -2.820389|  0.0000e+00|
|         860|   -2.820637|  0.0000e+00|
|         861|   -2.820888|  0.0000e+00|
|         862|   -2.821139|  0.0000e+00|
|         863|   -2.821392|  0.0000e+00|
|         864|   -2.821646|  0.0000e+00|
|         865|   -2.821899|  0.0000e+00|
|         866|   -2.822153|  0.0000e+00|
|         867|   -2.822406|  0.0000e+00|
|         868|   -2.822658|  0.0000e+00|
|         869|   -2.822911|  0.0000e+00|
|         870|   -2.823162|  0.0000e+00|
|         871|   -2.823413|  0.0000e+00|
|         872|   -2.823663|  0.0000e+00|
|         873|   -2.823913|  0.0000e+00|
|         874|   -2.824163|  0.0000e+00|
|         875|   -2.824412|  0.0000e+00|
|         876|   -2.824661|  0.0000e+00|
|         877|   -2.824911|  0.0000e+00|
|         878|   -2.825160|  0.0000e+00|
|         879|   -2.825410|  0.0000e+00|
|         880|   -2.825660|  0.0000e+00|
|         881|   -2.825910|  0.0000e+00|
|         882|   -2.826160|  0.0000e+00|
|         883|   -2.826411|  0.0000e+00|
|         884|   -2.826662|  0.0000e+00|
|         885|   -2.826912|  0.0000e+00|
|         886|   -2.827163|  0.0000e+00|
|         887|   -2.827414|  0.0000e+00|
|         888|   -2.828819|  0.0000e+00|
|         889|   -2.829053|  0.0000e+00|
|         890|   -2.829274|  0.0000e+00|
|         891|   -2.829494|  0.0000e+00|
|         892|   -2.830830|  0.0000e+00|
|         893|   -2.831048|  0.0000e+00|
|         894|   -2.831256|  0.0000e+00|
|         895|   -2.831466|  0.0000e+00|
|         896|   -2.832777|  0.0000e+00|
|         897|   -2.832989|  0.0000e+00|
|         898|   -2.834239|  0.0000e+00|
|         899|   -2.834436|  0.0000e+00|
|         900|   -2.834615|  0.0000e+00|
+-----------------------------------------------------------------------+
|        File Writing Summary       |              Filename             |
+-----------------------------------------------------------------------+
|SU2 restart                        |solution.dat                       |
|SU2 ASCII restart                  |solution.csv                       |
|Paraview                           |flow.vtu                           |
|Tecplot ASCII                      |flow.dat                           |
|Paraview surface                   |surface_flow.vtu                   |
+-----------------------------------------------------------------------+
+--------------------------------------+
|  Inner_Iter|    rms[Rho]|          HF|
+--------------------------------------+
|         901|   -2.834792|  0.0000e+00|
|         902|   -2.834971|  0.0000e+00|
|         903|   -2.835155|  0.0000e+00|
|         904|   -2.836408|  0.0000e+00|
|         905|   -2.836591|  0.0000e+00|
|         906|   -2.837766|  0.0000e+00|
|         907|   -2.837927|  0.0000e+00|
|         908|   -2.839051|  0.0000e+00|
|         909|   -2.839197|  0.0000e+00|
|         910|   -2.840306|  0.0000e+00|
|         911|   -2.840452|  0.0000e+00|
|         912|   -2.840585|  0.0000e+00|
|         913|   -2.840725|  0.0000e+00|
|         914|   -2.840874|  0.0000e+00|
|         915|   -2.841032|  0.0000e+00|
|         916|   -2.841198|  0.0000e+00|
|         917|   -2.842404|  0.0000e+00|
|         918|   -2.842562|  0.0000e+00|
|         919|   -2.842700|  0.0000e+00|
|         920|   -2.842833|  0.0000e+00|
|         921|   -2.842966|  0.0000e+00|
|         922|   -2.843101|  0.0000e+00|
|         923|   -2.844257|  0.0000e+00|
|         924|   -2.844399|  0.0000e+00|
|         925|   -2.844532|  0.0000e+00|
|         926|   -2.844671|  0.0000e+00|
|         927|   -2.844820|  0.0000e+00|
|         928|   -2.844980|  0.0000e+00|
|         929|   -2.846203|  0.0000e+00|
|         930|   -2.846380|  0.0000e+00|
|         931|   -2.846549|  0.0000e+00|
|         932|   -2.846725|  0.0000e+00|
|         933|   -2.846907|  0.0000e+00|
|         934|   -2.847099|  0.0000e+00|
|         935|   -2.848370|  0.0000e+00|
|         936|   -2.848566|  0.0000e+00|
|         937|   -2.848752|  0.0000e+00|
|         938|   -2.848941|  0.0000e+00|
|         939|   -2.849135|  0.0000e+00|
|         940|   -2.849334|  0.0000e+00|
|         941|   -2.849539|  0.0000e+00|
|         942|   -2.849751|  0.0000e+00|
|         943|   -2.849968|  0.0000e+00|
|         944|   -2.850187|  0.0000e+00|
|         945|   -2.850409|  0.0000e+00|
|         946|   -2.850630|  0.0000e+00|
|         947|   -2.850851|  0.0000e+00|
|         948|   -2.851072|  0.0000e+00|
|         949|   -2.851293|  0.0000e+00|
|         950|   -2.851515|  0.0000e+00|
|         951|   -2.851740|  0.0000e+00|
|         952|   -2.851969|  0.0000e+00|
|         953|   -2.852203|  0.0000e+00|
|         954|   -2.852442|  0.0000e+00|
|         955|   -2.852687|  0.0000e+00|
|         956|   -2.852939|  0.0000e+00|
|         957|   -2.853196|  0.0000e+00|
|         958|   -2.853460|  0.0000e+00|
|         959|   -2.853728|  0.0000e+00|
|         960|   -2.854002|  0.0000e+00|
|         961|   -2.854280|  0.0000e+00|
|         962|   -2.854562|  0.0000e+00|
|         963|   -2.854848|  0.0000e+00|
|         964|   -2.855135|  0.0000e+00|
|         965|   -2.855425|  0.0000e+00|
|         966|   -2.855716|  0.0000e+00|
|         967|   -2.856008|  0.0000e+00|
|         968|   -2.856301|  0.0000e+00|
|         969|   -2.856594|  0.0000e+00|
|         970|   -2.856887|  0.0000e+00|
|         971|   -2.857181|  0.0000e+00|
|         972|   -2.857474|  0.0000e+00|
|         973|   -2.857766|  0.0000e+00|
|         974|   -2.858059|  0.0000e+00|
|         975|   -2.858351|  0.0000e+00|
|         976|   -2.858644|  0.0000e+00|
|         977|   -2.860078|  0.0000e+00|
|         978|   -2.860350|  0.0000e+00|
|         979|   -2.860615|  0.0000e+00|
|         980|   -2.860880|  0.0000e+00|
|         981|   -2.861149|  0.0000e+00|
|         982|   -2.861424|  0.0000e+00|
|         983|   -2.861706|  0.0000e+00|
|         984|   -2.861994|  0.0000e+00|
|         985|   -2.862286|  0.0000e+00|
|         986|   -2.862580|  0.0000e+00|
|         987|   -2.862873|  0.0000e+00|
|         988|   -2.863163|  0.0000e+00|
|         989|   -2.863449|  0.0000e+00|
|         990|   -2.864843|  0.0000e+00|
|         991|   -2.865100|  0.0000e+00|
|         992|   -2.865343|  0.0000e+00|
|         993|   -2.865586|  0.0000e+00|
|         994|   -2.866914|  0.0000e+00|
|         995|   -2.867161|  0.0000e+00|
|         996|   -2.867403|  0.0000e+00|
|         997|   -2.867651|  0.0000e+00|
|         998|   -2.868993|  0.0000e+00|
|         999|   -2.869251|  0.0000e+00|
|        1000|   -2.870555|  0.0000e+00|
+-----------------------------------------------------------------------+
|        File Writing Summary       |              Filename             |
+-----------------------------------------------------------------------+
|SU2 restart                        |solution.dat                       |
|SU2 ASCII restart                  |solution.csv                       |
|Paraview                           |flow.vtu                           |
|Tecplot ASCII                      |flow.dat                           |
|Paraview surface                   |surface_flow.vtu                   |
+-----------------------------------------------------------------------+
+--------------------------------------+
|  Inner_Iter|    rms[Rho]|          HF|
+--------------------------------------+
|        1001|   -2.870804|  0.0000e+00|
|        1002|   -2.872076|  0.0000e+00|
|        1003|   -2.872314|  0.0000e+00|
|        1004|   -2.872540|  0.0000e+00|
|        1005|   -2.872768|  0.0000e+00|
|        1006|   -2.874052|  0.0000e+00|
|        1007|   -2.874283|  0.0000e+00|
|        1008|   -2.875513|  0.0000e+00|
|        1009|   -2.875724|  0.0000e+00|
|        1010|   -2.876905|  0.0000e+00|
|        1011|   -2.877096|  0.0000e+00|
|        1012|   -2.878251|  0.0000e+00|
|        1013|   -2.878435|  0.0000e+00|
|        1014|   -2.878610|  0.0000e+00|
|        1015|   -2.878789|  0.0000e+00|
|        1016|   -2.878976|  0.0000e+00|
|        1017|   -2.879172|  0.0000e+00|
|        1018|   -2.879376|  0.0000e+00|
|        1019|   -2.880613|  0.0000e+00|
|        1020|   -2.880805|  0.0000e+00|
|        1021|   -2.880982|  0.0000e+00|
|        1022|   -2.881156|  0.0000e+00|
|        1023|   -2.881330|  0.0000e+00|
|        1024|   -2.881509|  0.0000e+00|
|        1025|   -2.882720|  0.0000e+00|
|        1026|   -2.882909|  0.0000e+00|
|        1027|   -2.883096|  0.0000e+00|
|        1028|   -2.883290|  0.0000e+00|
|        1029|   -2.883495|  0.0000e+00|
|        1030|   -2.883713|  0.0000e+00|
|        1031|   -2.885011|  0.0000e+00|
|        1032|   -2.885244|  0.0000e+00|
|        1033|   -2.885473|  0.0000e+00|
|        1034|   -2.885708|  0.0000e+00|
|        1035|   -2.885950|  0.0000e+00|
|        1036|   -2.886200|  0.0000e+00|
|        1037|   -2.887549|  0.0000e+00|
|        1038|   -2.887800|  0.0000e+00|
|        1039|   -2.888046|  0.0000e+00|
|        1040|   -2.888293|  0.0000e+00|
|        1041|   -2.888544|  0.0000e+00|
|        1042|   -2.888802|  0.0000e+00|
|        1043|   -2.889065|  0.0000e+00|
|        1044|   -2.889334|  0.0000e+00|
|        1045|   -2.889608|  0.0000e+00|
|        1046|   -2.889883|  0.0000e+00|
|        1047|   -2.890159|  0.0000e+00|
|        1048|   -2.890434|  0.0000e+00|
|        1049|   -2.890707|  0.0000e+00|
|        1050|   -2.890980|  0.0000e+00|
|        1051|   -2.891252|  0.0000e+00|
|        1052|   -2.891524|  0.0000e+00|
|        1053|   -2.891800|  0.0000e+00|
|        1054|   -2.892078|  0.0000e+00|
|        1055|   -2.892362|  0.0000e+00|
|        1056|   -2.892650|  0.0000e+00|
|        1057|   -2.892945|  0.0000e+00|
|        1058|   -2.893246|  0.0000e+00|
|        1059|   -2.893552|  0.0000e+00|
|        1060|   -2.893864|  0.0000e+00|
|        1061|   -2.894182|  0.0000e+00|
|        1062|   -2.894504|  0.0000e+00|
|        1063|   -2.894831|  0.0000e+00|
|        1064|   -2.895161|  0.0000e+00|
|        1065|   -2.895494|  0.0000e+00|
|        1066|   -2.895829|  0.0000e+00|
|        1067|   -2.896166|  0.0000e+00|
|        1068|   -2.896505|  0.0000e+00|
|        1069|   -2.896845|  0.0000e+00|
|        1070|   -2.897186|  0.0000e+00|
|        1071|   -2.897526|  0.0000e+00|
|        1072|   -2.897867|  0.0000e+00|
|        1073|   -2.898208|  0.0000e+00|
|        1074|   -2.898549|  0.0000e+00|
|        1075|   -2.898889|  0.0000e+00|
|        1076|   -2.899229|  0.0000e+00|
|        1077|   -2.899568|  0.0000e+00|
|        1078|   -2.899907|  0.0000e+00|
|        1079|   -2.901399|  0.0000e+00|
|        1080|   -2.901720|  0.0000e+00|
|        1081|   -2.902032|  0.0000e+00|
|        1082|   -2.902345|  0.0000e+00|
|        1083|   -2.902660|  0.0000e+00|
|        1084|   -2.902981|  0.0000e+00|
|        1085|   -2.903308|  0.0000e+00|
|        1086|   -2.903640|  0.0000e+00|
|        1087|   -2.903975|  0.0000e+00|
|        1088|   -2.904310|  0.0000e+00|
|        1089|   -2.904642|  0.0000e+00|
|        1090|   -2.904968|  0.0000e+00|
|        1091|   -2.905289|  0.0000e+00|
|        1092|   -2.906720|  0.0000e+00|
|        1093|   -2.907010|  0.0000e+00|
|        1094|   -2.907287|  0.0000e+00|
|        1095|   -2.907562|  0.0000e+00|
|        1096|   -2.908926|  0.0000e+00|
|        1097|   -2.909207|  0.0000e+00|
|        1098|   -2.909482|  0.0000e+00|
|        1099|   -2.909761|  0.0000e+00|
|        1100|   -2.911138|  0.0000e+00|
+-----------------------------------------------------------------------+
|        File Writing Summary       |              Filename             |
+-----------------------------------------------------------------------+
|SU2 restart                        |solution.dat                       |
|SU2 ASCII restart                  |solution.csv                       |
|Paraview                           |flow.vtu                           |
|Tecplot ASCII                      |flow.dat                           |
|Paraview surface                   |surface_flow.vtu                   |
+-----------------------------------------------------------------------+
+--------------------------------------+
|  Inner_Iter|    rms[Rho]|          HF|
+--------------------------------------+
|        1101|   -2.911427|  0.0000e+00|
|        1102|   -2.912764|  0.0000e+00|
|        1103|   -2.913044|  0.0000e+00|
|        1104|   -2.914347|  0.0000e+00|
|        1105|   -2.914615|  0.0000e+00|
|        1106|   -2.914869|  0.0000e+00|
|        1107|   -2.915123|  0.0000e+00|
|        1108|   -2.916430|  0.0000e+00|
|        1109|   -2.916686|  0.0000e+00|
|        1110|   -2.917934|  0.0000e+00|
|        1111|   -2.918167|  0.0000e+00|
|        1112|   -2.919359|  0.0000e+00|
|        1113|   -2.919569|  0.0000e+00|
|        1114|   -2.920729|  0.0000e+00|
|        1115|   -2.920930|  0.0000e+00|
|        1116|   -2.921118|  0.0000e+00|
|        1117|   -2.921308|  0.0000e+00|
|        1118|   -2.921505|  0.0000e+00|
|        1119|   -2.921710|  0.0000e+00|
|        1120|   -2.921920|  0.0000e+00|
|        1121|   -2.923139|  0.0000e+00|
|        1122|   -2.923335|  0.0000e+00|
|        1123|   -2.923513|  0.0000e+00|
|        1124|   -2.923685|  0.0000e+00|
|        1125|   -2.923856|  0.0000e+00|
|        1126|   -2.924031|  0.0000e+00|
|        1127|   -2.925208|  0.0000e+00|
|        1128|   -2.925395|  0.0000e+00|
|        1129|   -2.925577|  0.0000e+00|
|        1130|   -2.925764|  0.0000e+00|
|        1131|   -2.925963|  0.0000e+00|
|        1132|   -2.926173|  0.0000e+00|
|        1133|   -2.927430|  0.0000e+00|
|        1134|   -2.927657|  0.0000e+00|
|        1135|   -2.927878|  0.0000e+00|
|        1136|   -2.928103|  0.0000e+00|
|        1137|   -2.928334|  0.0000e+00|
|        1138|   -2.928573|  0.0000e+00|
|        1139|   -2.929873|  0.0000e+00|
|        1140|   -2.930115|  0.0000e+00|
|        1141|   -2.930348|  0.0000e+00|
|        1142|   -2.930582|  0.0000e+00|
|        1143|   -2.930819|  0.0000e+00|
|        1144|   -2.931062|  0.0000e+00|
|        1145|   -2.931310|  0.0000e+00|
|        1146|   -2.931564|  0.0000e+00|
|        1147|   -2.931820|  0.0000e+00|
|        1148|   -2.932078|  0.0000e+00|
|        1149|   -2.932335|  0.0000e+00|
|        1150|   -2.932590|  0.0000e+00|
|        1151|   -2.932843|  0.0000e+00|
|        1152|   -2.933093|  0.0000e+00|
|        1153|   -2.933343|  0.0000e+00|
|        1154|   -2.933593|  0.0000e+00|
|        1155|   -2.933845|  0.0000e+00|
|        1156|   -2.934100|  0.0000e+00|
|        1157|   -2.934360|  0.0000e+00|
|        1158|   -2.934625|  0.0000e+00|
|        1159|   -2.934895|  0.0000e+00|
|        1160|   -2.935172|  0.0000e+00|
|        1161|   -2.935455|  0.0000e+00|
|        1162|   -2.935743|  0.0000e+00|
|        1163|   -2.936036|  0.0000e+00|
|        1164|   -2.936334|  0.0000e+00|
|        1165|   -2.936637|  0.0000e+00|
|        1166|   -2.936942|  0.0000e+00|
|        1167|   -2.937251|  0.0000e+00|
|        1168|   -2.937562|  0.0000e+00|
|        1169|   -2.937875|  0.0000e+00|
|        1170|   -2.938189|  0.0000e+00|
|        1171|   -2.938504|  0.0000e+00|
|        1172|   -2.938820|  0.0000e+00|
|        1173|   -2.939136|  0.0000e+00|
|        1174|   -2.939452|  0.0000e+00|
|        1175|   -2.939768|  0.0000e+00|
|        1176|   -2.940083|  0.0000e+00|
|        1177|   -2.940398|  0.0000e+00|
|        1178|   -2.940713|  0.0000e+00|
|        1179|   -2.941027|  0.0000e+00|
|        1180|   -2.941340|  0.0000e+00|
|        1181|   -2.942759|  0.0000e+00|
|        1182|   -2.943058|  0.0000e+00|
|        1183|   -2.943347|  0.0000e+00|
|        1184|   -2.943637|  0.0000e+00|
|        1185|   -2.943929|  0.0000e+00|
|        1186|   -2.944228|  0.0000e+00|
|        1187|   -2.944533|  0.0000e+00|
|        1188|   -2.944842|  0.0000e+00|
|        1189|   -2.945155|  0.0000e+00|
|        1190|   -2.945466|  0.0000e+00|
|        1191|   -2.945775|  0.0000e+00|
|        1192|   -2.946077|  0.0000e+00|
|        1193|   -2.946373|  0.0000e+00|
|        1194|   -2.947731|  0.0000e+00|
|        1195|   -2.948000|  0.0000e+00|
|        1196|   -2.948254|  0.0000e+00|
|        1197|   -2.948505|  0.0000e+00|
|        1198|   -2.949803|  0.0000e+00|
|        1199|   -2.950064|  0.0000e+00|
|        1200|   -2.950320|  0.0000e+00|
+-----------------------------------------------------------------------+
|        File Writing Summary       |              Filename             |
+-----------------------------------------------------------------------+
|SU2 restart                        |solution.dat                       |
|SU2 ASCII restart                  |solution.csv                       |
|Paraview                           |flow.vtu                           |
|Tecplot ASCII                      |flow.dat                           |
|Paraview surface                   |surface_flow.vtu                   |
+-----------------------------------------------------------------------+
+--------------------------------------+
|  Inner_Iter|    rms[Rho]|          HF|
+--------------------------------------+
|        1201|   -2.950580|  0.0000e+00|
|        1202|   -2.950847|  0.0000e+00|
|        1203|   -2.951120|  0.0000e+00|
|        1204|   -2.952459|  0.0000e+00|
|        1205|   -2.952733|  0.0000e+00|
|        1206|   -2.954003|  0.0000e+00|
|        1207|   -2.954258|  0.0000e+00|
|        1208|   -2.954496|  0.0000e+00|
|        1209|   -2.954731|  0.0000e+00|
|        1210|   -2.955987|  0.0000e+00|
|        1211|   -2.956232|  0.0000e+00|
|        1212|   -2.957452|  0.0000e+00|
|        1213|   -2.957686|  0.0000e+00|
|        1214|   -2.958869|  0.0000e+00|
|        1215|   -2.959089|  0.0000e+00|
|        1216|   -2.960246|  0.0000e+00|
|        1217|   -2.960456|  0.0000e+00|
|        1218|   -2.960651|  0.0000e+00|
|        1219|   -2.960846|  0.0000e+00|
|        1220|   -2.961044|  0.0000e+00|
|        1221|   -2.961246|  0.0000e+00|
|        1222|   -2.961451|  0.0000e+00|
|        1223|   -2.962624|  0.0000e+00|
|        1224|   -2.962808|  0.0000e+00|
|        1225|   -2.962970|  0.0000e+00|
|        1226|   -2.963123|  0.0000e+00|
|        1227|   -2.963275|  0.0000e+00|
|        1228|   -2.963428|  0.0000e+00|
|        1229|   -2.964538|  0.0000e+00|
|        1230|   -2.964705|  0.0000e+00|
|        1231|   -2.964865|  0.0000e+00|
|        1232|   -2.965031|  0.0000e+00|
|        1233|   -2.965207|  0.0000e+00|
|        1234|   -2.965395|  0.0000e+00|
|        1235|   -2.966586|  0.0000e+00|
|        1236|   -2.966795|  0.0000e+00|
|        1237|   -2.966997|  0.0000e+00|
|        1238|   -2.967202|  0.0000e+00|
|        1239|   -2.967413|  0.0000e+00|
|        1240|   -2.967632|  0.0000e+00|
|        1241|   -2.968869|  0.0000e+00|
|        1242|   -2.969094|  0.0000e+00|
|        1243|   -2.969308|  0.0000e+00|
|        1244|   -2.969522|  0.0000e+00|
|        1245|   -2.969738|  0.0000e+00|
|        1246|   -2.969960|  0.0000e+00|
|        1247|   -2.970186|  0.0000e+00|
|        1248|   -2.970418|  0.0000e+00|
|        1249|   -2.970651|  0.0000e+00|
|        1250|   -2.970885|  0.0000e+00|
|        1251|   -2.971117|  0.0000e+00|
|        1252|   -2.971347|  0.0000e+00|
|        1253|   -2.971574|  0.0000e+00|
|        1254|   -2.971798|  0.0000e+00|
|        1255|   -2.972022|  0.0000e+00|
|        1256|   -2.972245|  0.0000e+00|
|        1257|   -2.972470|  0.0000e+00|
|        1258|   -2.972699|  0.0000e+00|
|        1259|   -2.972932|  0.0000e+00|
|        1260|   -2.973170|  0.0000e+00|
|        1261|   -2.973414|  0.0000e+00|
|        1262|   -2.973663|  0.0000e+00|
|        1263|   -2.973919|  0.0000e+00|
|        1264|   -2.974179|  0.0000e+00|
|        1265|   -2.974445|  0.0000e+00|
|        1266|   -2.974716|  0.0000e+00|
|        1267|   -2.974990|  0.0000e+00|
|        1268|   -2.975268|  0.0000e+00|
|        1269|   -2.975548|  0.0000e+00|
|        1270|   -2.975831|  0.0000e+00|
|        1271|   -2.976115|  0.0000e+00|
|        1272|   -2.976400|  0.0000e+00|
|        1273|   -2.976686|  0.0000e+00|
|        1274|   -2.976973|  0.0000e+00|
|        1275|   -2.977259|  0.0000e+00|
|        1276|   -2.977546|  0.0000e+00|
|        1277|   -2.977832|  0.0000e+00|
|        1278|   -2.978119|  0.0000e+00|
|        1279|   -2.978405|  0.0000e+00|
|        1280|   -2.978690|  0.0000e+00|
|        1281|   -2.978976|  0.0000e+00|
|        1282|   -2.979261|  0.0000e+00|
|        1283|   -2.980604|  0.0000e+00|
|        1284|   -2.980878|  0.0000e+00|
|        1285|   -2.981143|  0.0000e+00|
|        1286|   -2.981407|  0.0000e+00|
|        1287|   -2.981675|  0.0000e+00|
|        1288|   -2.981949|  0.0000e+00|
|        1289|   -2.982230|  0.0000e+00|
|        1290|   -2.982515|  0.0000e+00|
|        1291|   -2.982802|  0.0000e+00|
|        1292|   -2.983089|  0.0000e+00|
|        1293|   -2.983371|  0.0000e+00|
|        1294|   -2.983647|  0.0000e+00|
|        1295|   -2.983916|  0.0000e+00|
|        1296|   -2.985198|  0.0000e+00|
|        1297|   -2.985441|  0.0000e+00|
|        1298|   -2.985669|  0.0000e+00|
|        1299|   -2.985893|  0.0000e+00|
|        1300|   -2.987114|  0.0000e+00|
+-----------------------------------------------------------------------+
|        File Writing Summary       |              Filename             |
+-----------------------------------------------------------------------+
|SU2 restart                        |solution.dat                       |
|SU2 ASCII restart                  |solution.csv                       |
|Paraview                           |flow.vtu                           |
|Tecplot ASCII                      |flow.dat                           |
|Paraview surface                   |surface_flow.vtu                   |
+-----------------------------------------------------------------------+
+--------------------------------------+
|  Inner_Iter|    rms[Rho]|          HF|
+--------------------------------------+
|        1301|   -2.987351|  0.0000e+00|
|        1302|   -2.988554|  0.0000e+00|
|        1303|   -2.988796|  0.0000e+00|
|        1304|   -2.989027|  0.0000e+00|
|        1305|   -2.989260|  0.0000e+00|
|        1306|   -2.990492|  0.0000e+00|
|        1307|   -2.990737|  0.0000e+00|
|        1308|   -2.991927|  0.0000e+00|
|        1309|   -2.992156|  0.0000e+00|
|        1310|   -2.992365|  0.0000e+00|
|        1311|   -2.992569|  0.0000e+00|
|        1312|   -2.993724|  0.0000e+00|
|        1313|   -2.993927|  0.0000e+00|
|        1314|   -2.995028|  0.0000e+00|
|        1315|   -2.995214|  0.0000e+00|
|        1316|   -2.996275|  0.0000e+00|
|        1317|   -2.996449|  0.0000e+00|
|        1318|   -2.997494|  0.0000e+00|
|        1319|   -2.997664|  0.0000e+00|
|        1320|   -2.997820|  0.0000e+00|
|        1321|   -2.997976|  0.0000e+00|
|        1322|   -2.998138|  0.0000e+00|
|        1323|   -2.998306|  0.0000e+00|
|        1324|   -2.998478|  0.0000e+00|
|        1325|   -2.999570|  0.0000e+00|
|        1326|   -2.999727|  0.0000e+00|
|        1327|   -2.999862|  0.0000e+00|
|        1328|   -2.999988|  0.0000e+00|
|        1329|   -3.000113|  0.0000e+00|
|        1330|   -3.000240|  0.0000e+00|
|        1331|   -3.001277|  0.0000e+00|
|        1332|   -3.001420|  0.0000e+00|
|        1333|   -3.001554|  0.0000e+00|
|        1334|   -3.001693|  0.0000e+00|
|        1335|   -3.001842|  0.0000e+00|
|        1336|   -3.002002|  0.0000e+00|
|        1337|   -3.003117|  0.0000e+00|
|        1338|   -3.003300|  0.0000e+00|
|        1339|   -3.003473|  0.0000e+00|
|        1340|   -3.003650|  0.0000e+00|
|        1341|   -3.003832|  0.0000e+00|
|        1342|   -3.004021|  0.0000e+00|
|        1343|   -3.005180|  0.0000e+00|
|        1344|   -3.005378|  0.0000e+00|
|        1345|   -3.005564|  0.0000e+00|
|        1346|   -3.005749|  0.0000e+00|
|        1347|   -3.005937|  0.0000e+00|
|        1348|   -3.006129|  0.0000e+00|
|        1349|   -3.006326|  0.0000e+00|
|        1350|   -3.006528|  0.0000e+00|
|        1351|   -3.006732|  0.0000e+00|
|        1352|   -3.006935|  0.0000e+00|
|        1353|   -3.007137|  0.0000e+00|
|        1354|   -3.007336|  0.0000e+00|
|        1355|   -3.007532|  0.0000e+00|
|        1356|   -3.007726|  0.0000e+00|
|        1357|   -3.007918|  0.0000e+00|
|        1358|   -3.008111|  0.0000e+00|
|        1359|   -3.008305|  0.0000e+00|
|        1360|   -3.008503|  0.0000e+00|
|        1361|   -3.008705|  0.0000e+00|
|        1362|   -3.008913|  0.0000e+00|
|        1363|   -3.009126|  0.0000e+00|
|        1364|   -3.009346|  0.0000e+00|
|        1365|   -3.009572|  0.0000e+00|
|        1366|   -3.009803|  0.0000e+00|
|        1367|   -3.010040|  0.0000e+00|
|        1368|   -3.010282|  0.0000e+00|
|        1369|   -3.010528|  0.0000e+00|
|        1370|   -3.010777|  0.0000e+00|
|        1371|   -3.011029|  0.0000e+00|
|        1372|   -3.011284|  0.0000e+00|
|        1373|   -3.011540|  0.0000e+00|
|        1374|   -3.011797|  0.0000e+00|
|        1375|   -3.012055|  0.0000e+00|
|        1376|   -3.012314|  0.0000e+00|
|        1377|   -3.012572|  0.0000e+00|
|        1378|   -3.012831|  0.0000e+00|
|        1379|   -3.013088|  0.0000e+00|
|        1380|   -3.013346|  0.0000e+00|
|        1381|   -3.013602|  0.0000e+00|
|        1382|   -3.013858|  0.0000e+00|
|        1383|   -3.014114|  0.0000e+00|
|        1384|   -3.014368|  0.0000e+00|
|        1385|   -3.015633|  0.0000e+00|
|        1386|   -3.015880|  0.0000e+00|
|        1387|   -3.016117|  0.0000e+00|
|        1388|   -3.016352|  0.0000e+00|
|        1389|   -3.016590|  0.0000e+00|
|        1390|   -3.016834|  0.0000e+00|
|        1391|   -3.017085|  0.0000e+00|
|        1392|   -3.017341|  0.0000e+00|
|        1393|   -3.017598|  0.0000e+00|
|        1394|   -3.017855|  0.0000e+00|
|        1395|   -3.018107|  0.0000e+00|
|        1396|   -3.018353|  0.0000e+00|
|        1397|   -3.018592|  0.0000e+00|
|        1398|   -3.019799|  0.0000e+00|
|        1399|   -3.020018|  0.0000e+00|
|        1400|   -3.020221|  0.0000e+00|
[...]
| SU2 is free software; you can redistribute it and/or                  |
| modify it under the terms of the GNU Lesser General Public            |
| License as published by the Free Software Foundation; either          |
| version 2.1 of the License, or (at your option) any later version.    |
|                                                                       |
| SU2 is distributed in the hope that it will be useful,                |
| but WITHOUT ANY WARRANTY; without even the implied warranty of        |
| MERCHANTABILITY or FITNESS FOR A PARTICULAR PURPOSE. See the GNU      |
| Lesser General Public License for more details.                       |
|                                                                       |
| You should have received a copy of the GNU Lesser General Public      |
| License along with SU2. If not, see <http://www.gnu.org/licenses/>.   |
-------------------------------------------------------------------------

Parsing config file for zone 0

----------------- Physical Case Definition ( Zone 0 ) -------------------
Compressible Euler equations.
Mach number: 1e-09.
Angle of attack (AoA): 0 deg, and angle of sideslip (AoS): 0 deg.
Reading and writing binary SU2 native restart files.
Read flow solution from: solution_interpolated.dat.
Dimensional simulation.
The reference area is 1 m^2.
The semi-span will be computed using the max y(3D) value.
The reference length is 1 m.
Input mesh file name: admesh.INL.su2

--------------- Space Numerical Integration ( Zone 0 ) ------------------
Roe (with entropy fix = 0.1) solver for the flow inviscid terms.
Standard Roe without low-dissipation function.
Second order integration in space, with slope limiter.
Venkatakrishnan slope-limiting method, with constant: 0.01. 
The reference element size is: 1. 
Gradient for upwind reconstruction: unweighted Least-Squares.
Gradient for viscous and source terms: Green-Gauss.

--------------- Time Numerical Integration  ( Zone 0 ) ------------------
Local time stepping (steady state simulation).
Euler implicit method for the flow equations.
FGMRES is used for solving the linear system.
Using a ILU(0) preconditioning.
Convergence criteria of the linear solver: 1e-06.
Max number of linear iterations: 10.
CFL adaptation. Factor down: 0.1, factor up: 2,
                lower limit: 10, upper limit: 1000,
                acceptable linear residual: 0.001.
Courant-Friedrichs-Lewy number:       10

------------------ Convergence Criteria  ( Zone 0 ) ---------------------
Maximum number of solver subiterations: 6000.
Begin convergence monitoring at iteration 10.
Residual minimum value: 1e-13.
Cauchy series min. value: 1e-10.
Number of Cauchy elements: 100.
Begin windowed time average at iteration 0.

-------------------- Output Information ( Zone 0 ) ----------------------
Writing solution files every 100 iterations.
Writing the convergence history file every 1 inner iterations.
Writing the screen convergence history every 1 inner iterations.
The tabular file format is CSV (.csv).
Convergence history file name: history_2nd.
Forces breakdown file name: forces_breakdown.dat.
Surface file name: surface_flow.
Volume file name: flow.
Restart file name: solution.dat.

------------- Config File Boundary Information ( Zone 0 ) ---------------
+-----------------------------------------------------------------------+
|                        Marker Type|                        Marker Name|
+-----------------------------------------------------------------------+
|                         Euler wall|                                  2|
|                                   |                                  3|
+-----------------------------------------------------------------------+
|                     Symmetry plane|                                  6|
+-----------------------------------------------------------------------+
|                   Riemann boundary|                                  1|
|                                   |                                  4|
|                                   |                                  5|
+-----------------------------------------------------------------------+

-------------------- Output Preprocessing ( Zone 0 ) --------------------
Screen output fields: INNER_ITER, RMS_DENSITY, TOTAL_HEATFLUX
History output group(s): ITER, RMS_RES
Convergence field(s): RMS_DENSITY
Warning: No (valid) fields chosen for time convergence monitoring. Time convergence monitoring inactive.
Volume output fields: COORDINATES, SOLUTION, PRIMITIVE

------------------- Geometry Preprocessing ( Zone 0 ) -------------------
Two dimensional problem.
27125 grid points before partitioning.
53317 volume elements before partitioning.
6 surface markers.
32 boundary elements in index 0 (Marker = 1).
79 boundary elements in index 1 (Marker = 2).
79 boundary elements in index 2 (Marker = 3).
130 boundary elements in index 3 (Marker = 4).
47 boundary elements in index 4 (Marker = 5).
487 boundary elements in index 5 (Marker = 6).
Executing the partitioning functions.
Building the graph adjacency structure.
Calling ParMETIS... graph partitioning complete (1401 edge cuts).
Distributing ParMETIS coloring.
Rebalancing vertices.
Rebalancing volume element connectivity.
Rebalancing markers and surface elements.
28547 vertices including ghost points. 
54716 interior elements including halo cells. 
54638 triangles.
78 quadrilaterals.
Establishing MPI communication patterns.
Setting point connectivity.
Renumbering points (Reverse Cuthill McKee Ordering).
Recomputing point connectivity.
Setting element connectivity.
Checking the numerical grid orientation.
All volume elements are correctly orientend.
There has been a re-orientation of 867 LINE surface elements.
Identifying edges and vertices.
Setting the control volume structure.
Area of the computational grid: 1131.27.
Searching for the closest normal neighbors to the surfaces.
Storing a mapping from global to local point index.
Compute the surface curvature.
Max K: 14.1824. Mean K: 0.151097. Standard deviation K: 1.19093.
Checking for periodicity.
Computing mesh quality statistics for the dual control volumes.
+--------------------------------------------------------------+
|           Mesh Quality Metric|        Minimum|        Maximum|
+--------------------------------------------------------------+
|    Orthogonality Angle (deg.)|        53.7783|             90|
|     CV Face Area Aspect Ratio|        1.00003|         14.198|
|           CV Sub-Volume Ratio|              1|        12.1091|
+--------------------------------------------------------------+
Finding max control volume width.
Communicating number of neighbors.
Wetted area = 0 m.
Area projection in the x-plane = 0 m, y-plane = 0 m.
Max. coordinate in the x-direction = -1e+10 m, y-direction = -1e+10 m.
Min. coordinate in the x-direction = 1e+10 m, y-direction = 1e+10 m.
Checking if Euler & Symmetry markers are straight/plane:
Boundary marker 2 is NOT a single straight.
Boundary marker 3 is a single straight.
Boundary marker 6 is a single straight.
Computing wall distances.

-------------------- Solver Preprocessing ( Zone 0 ) --------------------
Inviscid flow: Computing density based on free-stream
temperature and pressure using the ideal gas law.
Force coefficients computed using free-stream values.

-- Models:
+------------------------------------------------------------------------------+
|          Viscosity Model|        Conductivity Model|              Fluid Model|
+------------------------------------------------------------------------------+
|                        -|                         -|                IDEAL_GAS|
+------------------------------------------------------------------------------+
-- Fluid properties:
+------------------------------------------------------------------------------+
|                  Name|    Dim. value|    Ref. value|      Unit|Non-dim. value|
+------------------------------------------------------------------------------+
|          Gas Constant|           297|             1|  N.m/kg.K|           297|
|      Spec. Heat Ratio|             -|             -|         -|           1.4|
+------------------------------------------------------------------------------+
-- Initial and free-stream conditions:
+------------------------------------------------------------------------------+
|                  Name|    Dim. value|    Ref. value|      Unit|Non-dim. value|
+------------------------------------------------------------------------------+
|       Static Pressure|        803430|             1|        Pa|        803430|
|               Density|       8.02716|             1|    kg/m^3|       8.02716|
|           Temperature|           337|             1|         K|           337|
|          Total Energy|        250223|             1|   m^2/s^2|        250223|
|            Velocity-X|   3.74332e-07|             1|       m/s|   3.74332e-07|
|            Velocity-Y|             0|             1|       m/s|             0|
|    Velocity Magnitude|   3.74332e-07|             1|       m/s|   3.74332e-07|
+------------------------------------------------------------------------------+
|           Mach Number|             -|             -|         -|         1e-09|
+------------------------------------------------------------------------------+
Initialize Jacobian structure (Euler). MG level: 0.

------------------- Numerics Preprocessing ( Zone 0 ) -------------------

----------------- Integration Preprocessing ( Zone 0 ) ------------------

------------------- Iteration Preprocessing ( Zone 0 ) ------------------
Euler/Navier-Stokes/RANS fluid iteration.

------------------------------ Begin Solver -----------------------------

Simulation Run using the Single-zone Driver
+--------------------------------------+
|  Inner_Iter|    rms[Rho]|          HF|
+--------------------------------------+
|           0|    2.141795|  0.0000e+00|
|           1|    2.015199|  0.0000e+00|
|           2|    1.857207|  0.0000e+00|
|           3|    1.672529|  0.0000e+00|
|           4|    1.448762|  0.0000e+00|
|           5|    1.264029|  0.0000e+00|
|           6|    1.114434|  0.0000e+00|
|           7|    0.999415|  0.0000e+00|
|           8|    0.877299|  0.0000e+00|
|           9|    0.791617|  0.0000e+00|
|          10|    0.726286|  0.0000e+00|
|          11|    0.652370|  0.0000e+00|
|          12|    0.617034|  0.0000e+00|
|          13|    0.601240|  0.0000e+00|
|          14|    0.611458|  0.0000e+00|
|          15|    0.558360|  0.0000e+00|
|          16|    0.548092|  0.0000e+00|
|          17|    0.559291|  0.0000e+00|
|          18|    0.523432|  0.0000e+00|
|          19|    0.519948|  0.0000e+00|
|          20|    0.538144|  0.0000e+00|
|          21|    0.490381|  0.0000e+00|
|          22|    0.450750|  0.0000e+00|
|          23|    0.410793|  0.0000e+00|
|          24|    0.337027|  0.0000e+00|
|          25|    0.297952|  0.0000e+00|
|          26|    0.298359|  0.0000e+00|
|          27|    0.261466|  0.0000e+00|
|          28|    0.264674|  0.0000e+00|
|          29|    0.321373|  0.0000e+00|
|          30|    0.316696|  0.0000e+00|
|          31|    0.333915|  0.0000e+00|
|          32|    0.373613|  0.0000e+00|
|          33|    0.344275|  0.0000e+00|
|          34|    0.349519|  0.0000e+00|
|          35|    0.371681|  0.0000e+00|
|          36|    0.402705|  0.0000e+00|
|          37|    0.367102|  0.0000e+00|
|          38|    0.348382|  0.0000e+00|
|          39|    0.358811|  0.0000e+00|
|          40|    0.377096|  0.0000e+00|
|          41|    0.350306|  0.0000e+00|
|          42|    0.350879|  0.0000e+00|
|          43|    0.355809|  0.0000e+00|
|          44|    0.341629|  0.0000e+00|
|          45|    0.361445|  0.0000e+00|
|          46|    0.374524|  0.0000e+00|
|          47|    0.361400|  0.0000e+00|
|          48|    0.341454|  0.0000e+00|
|          49|    0.286880|  0.0000e+00|
|          50|    0.296646|  0.0000e+00|
|          51|    0.368737|  0.0000e+00|
|          52|    0.428506|  0.0000e+00|
|          53|    0.414672|  0.0000e+00|
|          54|    0.465251|  0.0000e+00|
|          55|    0.352509|  0.0000e+00|
|          56|    0.286924|  0.0000e+00|
|          57|    0.228353|  0.0000e+00|
|          58|    0.178301|  0.0000e+00|
|          59|    0.155178|  0.0000e+00|
|          60|    0.153572|  0.0000e+00|
|          61|    0.056111|  0.0000e+00|
|          62|    0.074215|  0.0000e+00|
|          63|    0.128023|  0.0000e+00|
|          64|    0.181616|  0.0000e+00|
|          65|    0.222513|  0.0000e+00|
|          66|    0.232935|  0.0000e+00|
|          67|    0.185478|  0.0000e+00|
|          68|    0.161168|  0.0000e+00|
|          69|    0.139997|  0.0000e+00|
|          70|    0.084858|  0.0000e+00|
|          71|    0.153247|  0.0000e+00|
|          72|    0.272129|  0.0000e+00|
|          73|    0.275907|  0.0000e+00|
|          74|    0.232649|  0.0000e+00|
|          75|    0.272787|  0.0000e+00|
|          76|    0.304827|  0.0000e+00|
|          77|    0.283014|  0.0000e+00|
|          78|    0.263826|  0.0000e+00|
|          79|    0.256696|  0.0000e+00|
|          80|    0.244238|  0.0000e+00|
|          81|    0.246417|  0.0000e+00|
|          82|    0.245059|  0.0000e+00|
|          83|    0.267505|  0.0000e+00|
|          84|    0.302562|  0.0000e+00|
|          85|    0.223231|  0.0000e+00|
|          86|    0.173131|  0.0000e+00|
|          87|    0.114125|  0.0000e+00|
|          88|   -0.017193|  0.0000e+00|
|          89|   -0.080797|  0.0000e+00|
|          90|   -0.118984|  0.0000e+00|
|          91|   -0.291422|  0.0000e+00|
|          92|   -0.260088|  0.0000e+00|
|          93|   -0.185058|  0.0000e+00|
|          94|   -0.095944|  0.0000e+00|
|          95|   -0.133085|  0.0000e+00|
|          96|   -0.295848|  0.0000e+00|
|          97|   -0.310322|  0.0000e+00|
|          98|   -0.215092|  0.0000e+00|
|          99|   -0.155399|  0.0000e+00|
|         100|   -0.201584|  0.0000e+00|
+-----------------------------------------------------------------------+
|        File Writing Summary       |              Filename             |
+-----------------------------------------------------------------------+
|SU2 restart                        |solution.dat                       |
|SU2 ASCII restart                  |solution.csv                       |
|Paraview                           |flow.vtu                           |
|Tecplot ASCII                      |flow.dat                           |
|Paraview surface                   |surface_flow.vtu                   |
+-----------------------------------------------------------------------+
+--------------------------------------+
|  Inner_Iter|    rms[Rho]|          HF|
+--------------------------------------+
|         101|   -0.265742|  0.0000e+00|
|         102|   -0.257764|  0.0000e+00|
|         103|   -0.262848|  0.0000e+00|
|         104|   -0.266595|  0.0000e+00|
|         105|   -0.408641|  0.0000e+00|
|         106|   -0.392257|  0.0000e+00|
|         107|   -0.286574|  0.0000e+00|
|         108|   -0.436201|  0.0000e+00|
|         109|   -0.464120|  0.0000e+00|
|         110|   -0.458201|  0.0000e+00|
|         111|   -0.426062|  0.0000e+00|
|         112|   -0.384305|  0.0000e+00|
|         113|   -0.340737|  0.0000e+00|
|         114|   -0.288290|  0.0000e+00|
|         115|   -0.272623|  0.0000e+00|
|         116|   -0.254341|  0.0000e+00|
|         117|   -0.231308|  0.0000e+00|
|         118|   -0.131368|  0.0000e+00|
|         119|   -0.013191|  0.0000e+00|
|         120|    0.113009|  0.0000e+00|
|         121|    0.261570|  0.0000e+00|
|         122|    0.273278|  0.0000e+00|
|         123|    0.299143|  0.0000e+00|
|         124|    0.191367|  0.0000e+00|
|         125|    0.166672|  0.0000e+00|
|         126|    0.278367|  0.0000e+00|
|         127|    0.415523|  0.0000e+00|
|         128|    0.520567|  0.0000e+00|
|         129|    0.604996|  0.0000e+00|
|         130|    0.631404|  0.0000e+00|
|         131|    0.669370|  0.0000e+00|
|         132|    0.609457|  0.0000e+00|
|         133|    0.640790|  0.0000e+00|
|         134|    0.697159|  0.0000e+00|
|         135|    0.615645|  0.0000e+00|
|         136|    0.658840|  0.0000e+00|
|         137|    0.667745|  0.0000e+00|
|         138|    0.703526|  0.0000e+00|
|         139|    0.726749|  0.0000e+00|
|         140|    0.611287|  0.0000e+00|
|         141|    0.555411|  0.0000e+00|
|         142|    0.377045|  0.0000e+00|
|         143|    0.246327|  0.0000e+00|
|         144|    0.179346|  0.0000e+00|
|         145|    0.376744|  0.0000e+00|
|         146|    0.899736|  0.0000e+00|
|         147|    0.779044|  0.0000e+00|
|         148|    0.460911|  0.0000e+00|
|         149|    0.188999|  0.0000e+00|
|         150|    0.229430|  0.0000e+00|
|         151|    0.298233|  0.0000e+00|
|         152|    0.317082|  0.0000e+00|
|         153|    0.342254|  0.0000e+00|
|         154|    0.291725|  0.0000e+00|
|         155|    0.182066|  0.0000e+00|
|         156|    0.191696|  0.0000e+00|
|         157|    0.215640|  0.0000e+00|
|         158|    0.301358|  0.0000e+00|
|         159|    0.404638|  0.0000e+00|
|         160|    0.471719|  0.0000e+00|
|         161|    0.727838|  0.0000e+00|
|         162|    0.624901|  0.0000e+00|
|         163|    0.567714|  0.0000e+00|
|         164|    0.491071|  0.0000e+00|
|         165|    0.423701|  0.0000e+00|
|         166|    0.407951|  0.0000e+00|
|         167|    0.348379|  0.0000e+00|
|         168|    0.275030|  0.0000e+00|
|         169|    0.196176|  0.0000e+00|
|         170|    0.194672|  0.0000e+00|
|         171|    0.088592|  0.0000e+00|
|         172|    0.064933|  0.0000e+00|
|         173|    0.124723|  0.0000e+00|
|         174|    0.179188|  0.0000e+00|
|         175|    0.189022|  0.0000e+00|
|         176|    0.202224|  0.0000e+00|
|         177|    0.231417|  0.0000e+00|
|         178|    0.534568|  0.0000e+00|
|         179|    0.714020|  0.0000e+00|
|         180|    0.409210|  0.0000e+00|
|         181|    0.394670|  0.0000e+00|
|         182|    0.477357|  0.0000e+00|
|         183|    0.540258|  0.0000e+00|
|         184|    0.579872|  0.0000e+00|
|         185|    0.600306|  0.0000e+00|
|         186|    0.586344|  0.0000e+00|
|         187|    0.591498|  0.0000e+00|
|         188|    0.595672|  0.0000e+00|
|         189|    0.588399|  0.0000e+00|
|         190|    0.594175|  0.0000e+00|
|         191|    0.581365|  0.0000e+00|
|         192|    0.399130|  0.0000e+00|
|         193|    0.395196|  0.0000e+00|
|         194|    0.515060|  0.0000e+00|
|         195|    0.537551|  0.0000e+00|


Error in "void CSysSolve<ScalarType>::ModGramSchmidt(int, su2matrix<ScalarType>&, std::vector<CSysVector<ScalarType> >&) const [with ScalarType = double; su2matrix<ScalarType> = C2DContainer<long unsigned int, double, (StorageType)0, 64ul, 0ul, 0ul>]": 
-------------------------------------------------------------------------
FGMRES orthogonalization failed, linear solver diverged.
------------------------------ Error Exit -------------------------------


--------------------------------------------------------------------------
MPI_ABORT was invoked on rank 4 in communicator MPI_COMM_WORLD
with errorcode 1.

NOTE: invoking MPI_ABORT causes Open MPI to kill all MPI processes.
You may or may not see output from other processes, depending on
exactly when Open MPI kills them.
--------------------------------------------------------------------------
[minion02:27094] 3 more processes have sent help message help-mpi-api.txt / mpi-abort
[minion02:27094] Set MCA parameter "orte_base_help_aggregate" to 0 to see all help / error messages
slurmstepd: _slurm_cgroup_destroy: problem deleting step cgroup path /cgroup/freezer/slurm/uid_1052/job_916990/step_batch: Device or resource busy
